
---------- Begin Simulation Statistics ----------
final_tick                                   21249500                       # Number of ticks from beginning of simulation (restored from checkpoints and never reset)
host_inst_rate                                  71425                       # Simulator instruction rate (inst/s)
host_mem_usage                                 688916                       # Number of bytes of host memory used
host_op_rate                                   145583                       # Simulator op (including micro ops) rate (op/s)
host_seconds                                     0.08                       # Real time elapsed on the host
host_tick_rate                              280288252                       # Simulator tick rate (ticks/s)
sim_freq                                 1000000000000                       # Frequency of simulated ticks
sim_insts                                        5409                       # Number of instructions simulated
sim_ops                                         11035                       # Number of ops (including micro ops) simulated
sim_seconds                                  0.000021                       # Number of seconds simulated
sim_ticks                                    21249500                       # Number of ticks simulated
system.cpu.branchPred.BTBCorrect                    0                       # Number of correct BTB predictions (this stat may not work properly.
system.cpu.branchPred.BTBHitPct              0.000000                       # BTB Hit Percentage
system.cpu.branchPred.BTBHits                       0                       # Number of BTB hits
system.cpu.branchPred.BTBLookups                 2935                       # Number of BTB lookups
system.cpu.branchPred.RASInCorrect                  0                       # Number of incorrect RAS predictions.
system.cpu.branchPred.condIncorrect               585                       # Number of conditional branches incorrect
system.cpu.branchPred.condPredicted              2535                       # Number of conditional branches predicted
system.cpu.branchPred.indirectHits                381                       # Number of indirect target hits.
system.cpu.branchPred.indirectLookups            2935                       # Number of indirect predictor lookups.
system.cpu.branchPred.indirectMisses             2554                       # Number of indirect misses.
system.cpu.branchPred.lookups                    3329                       # Number of BP lookups
system.cpu.branchPred.usedRAS                     239                       # Number of times the RAS was used to get a target.
system.cpu.branchPredindirectMispredicted          538                       # Number of mispredicted indirect branches.
system.cpu.cc_regfile_reads                      7460                       # number of cc regfile reads
system.cpu.cc_regfile_writes                     4260                       # number of cc regfile writes
system.cpu.commit.amos                              0                       # Number of atomic instructions committed
system.cpu.commit.branchMispredicts               664                       # The number of times a branch was mispredicted
system.cpu.commit.branches                       1049                       # Number of branches committed
system.cpu.commit.bw_lim_events                   422                       # number cycles where commit BW limit reached
system.cpu.commit.commitNonSpecStalls               9                       # The number of times commit has been forced to stall to communicate backwards
system.cpu.commit.commitSquashedInsts           11671                       # The number of squashed insts skipped by commit
system.cpu.commit.committedInsts                 5409                       # Number of instructions committed
system.cpu.commit.committedOps                  11035                       # Number of ops (including micro ops) committed
system.cpu.commit.committed_per_cycle::samples        22737                       # Number of insts commited each cycle
system.cpu.commit.committed_per_cycle::mean     0.485332                       # Number of insts commited each cycle
system.cpu.commit.committed_per_cycle::stdev     1.457547                       # Number of insts commited each cycle
system.cpu.commit.committed_per_cycle::underflows            0      0.00%      0.00% # Number of insts commited each cycle
system.cpu.commit.committed_per_cycle::0        19294     84.86%     84.86% # Number of insts commited each cycle
system.cpu.commit.committed_per_cycle::1         1015      4.46%     89.32% # Number of insts commited each cycle
system.cpu.commit.committed_per_cycle::2          679      2.99%     92.31% # Number of insts commited each cycle
system.cpu.commit.committed_per_cycle::3          612      2.69%     95.00% # Number of insts commited each cycle
system.cpu.commit.committed_per_cycle::4          387      1.70%     96.70% # Number of insts commited each cycle
system.cpu.commit.committed_per_cycle::5          134      0.59%     97.29% # Number of insts commited each cycle
system.cpu.commit.committed_per_cycle::6          126      0.55%     97.84% # Number of insts commited each cycle
system.cpu.commit.committed_per_cycle::7           68      0.30%     98.14% # Number of insts commited each cycle
system.cpu.commit.committed_per_cycle::8          422      1.86%    100.00% # Number of insts commited each cycle
system.cpu.commit.committed_per_cycle::overflows            0      0.00%    100.00% # Number of insts commited each cycle
system.cpu.commit.committed_per_cycle::min_value            0                       # Number of insts commited each cycle
system.cpu.commit.committed_per_cycle::max_value            8                       # Number of insts commited each cycle
system.cpu.commit.committed_per_cycle::total        22737                       # Number of insts commited each cycle
system.cpu.commit.fp_insts                       1935                       # Number of committed floating point instructions.
system.cpu.commit.function_calls                  112                       # Number of function calls committed.
system.cpu.commit.int_insts                      9509                       # Number of committed integer instructions.
system.cpu.commit.loads                           946                       # Number of loads committed
system.cpu.commit.membars                           0                       # Number of memory barriers committed
system.cpu.commit.op_class_0::No_OpClass           97      0.88%      0.88% # Class of committed instruction
system.cpu.commit.op_class_0::IntAlu             7840     71.05%     71.93% # Class of committed instruction
system.cpu.commit.op_class_0::IntMult               4      0.04%     71.96% # Class of committed instruction
system.cpu.commit.op_class_0::IntDiv               14      0.13%     72.09% # Class of committed instruction
system.cpu.commit.op_class_0::FloatAdd             10      0.09%     72.18% # Class of committed instruction
system.cpu.commit.op_class_0::FloatCmp              0      0.00%     72.18% # Class of committed instruction
system.cpu.commit.op_class_0::FloatCvt              0      0.00%     72.18% # Class of committed instruction
system.cpu.commit.op_class_0::FloatMult             0      0.00%     72.18% # Class of committed instruction
system.cpu.commit.op_class_0::FloatMultAcc            0      0.00%     72.18% # Class of committed instruction
system.cpu.commit.op_class_0::FloatDiv              0      0.00%     72.18% # Class of committed instruction
system.cpu.commit.op_class_0::FloatMisc             0      0.00%     72.18% # Class of committed instruction
system.cpu.commit.op_class_0::FloatSqrt             0      0.00%     72.18% # Class of committed instruction
system.cpu.commit.op_class_0::SimdAdd             374      3.39%     75.57% # Class of committed instruction
system.cpu.commit.op_class_0::SimdAddAcc            0      0.00%     75.57% # Class of committed instruction
system.cpu.commit.op_class_0::SimdAlu              68      0.62%     76.18% # Class of committed instruction
system.cpu.commit.op_class_0::SimdCmp               0      0.00%     76.18% # Class of committed instruction
system.cpu.commit.op_class_0::SimdCvt             108      0.98%     77.16% # Class of committed instruction
system.cpu.commit.op_class_0::SimdMisc            214      1.94%     79.10% # Class of committed instruction
system.cpu.commit.op_class_0::SimdMult              0      0.00%     79.10% # Class of committed instruction
system.cpu.commit.op_class_0::SimdMultAcc            0      0.00%     79.10% # Class of committed instruction
system.cpu.commit.op_class_0::SimdShift           186      1.69%     80.79% # Class of committed instruction
system.cpu.commit.op_class_0::SimdShiftAcc            0      0.00%     80.79% # Class of committed instruction
system.cpu.commit.op_class_0::SimdDiv               0      0.00%     80.79% # Class of committed instruction
system.cpu.commit.op_class_0::SimdSqrt              0      0.00%     80.79% # Class of committed instruction
system.cpu.commit.op_class_0::SimdFloatAdd            0      0.00%     80.79% # Class of committed instruction
system.cpu.commit.op_class_0::SimdFloatAlu            0      0.00%     80.79% # Class of committed instruction
system.cpu.commit.op_class_0::SimdFloatCmp            0      0.00%     80.79% # Class of committed instruction
system.cpu.commit.op_class_0::SimdFloatCvt            0      0.00%     80.79% # Class of committed instruction
system.cpu.commit.op_class_0::SimdFloatDiv            0      0.00%     80.79% # Class of committed instruction
system.cpu.commit.op_class_0::SimdFloatMisc            0      0.00%     80.79% # Class of committed instruction
system.cpu.commit.op_class_0::SimdFloatMult            0      0.00%     80.79% # Class of committed instruction
system.cpu.commit.op_class_0::SimdFloatMultAcc            0      0.00%     80.79% # Class of committed instruction
system.cpu.commit.op_class_0::SimdFloatSqrt            0      0.00%     80.79% # Class of committed instruction
system.cpu.commit.op_class_0::SimdReduceAdd            0      0.00%     80.79% # Class of committed instruction
system.cpu.commit.op_class_0::SimdReduceAlu            0      0.00%     80.79% # Class of committed instruction
system.cpu.commit.op_class_0::SimdReduceCmp            0      0.00%     80.79% # Class of committed instruction
system.cpu.commit.op_class_0::SimdFloatReduceAdd            0      0.00%     80.79% # Class of committed instruction
system.cpu.commit.op_class_0::SimdFloatReduceCmp            0      0.00%     80.79% # Class of committed instruction
system.cpu.commit.op_class_0::SimdAes               0      0.00%     80.79% # Class of committed instruction
system.cpu.commit.op_class_0::SimdAesMix            0      0.00%     80.79% # Class of committed instruction
system.cpu.commit.op_class_0::SimdSha1Hash            0      0.00%     80.79% # Class of committed instruction
system.cpu.commit.op_class_0::SimdSha1Hash2            0      0.00%     80.79% # Class of committed instruction
system.cpu.commit.op_class_0::SimdSha256Hash            0      0.00%     80.79% # Class of committed instruction
system.cpu.commit.op_class_0::SimdSha256Hash2            0      0.00%     80.79% # Class of committed instruction
system.cpu.commit.op_class_0::SimdShaSigma2            0      0.00%     80.79% # Class of committed instruction
system.cpu.commit.op_class_0::SimdShaSigma3            0      0.00%     80.79% # Class of committed instruction
system.cpu.commit.op_class_0::SimdPredAlu            0      0.00%     80.79% # Class of committed instruction
system.cpu.commit.op_class_0::MemRead             894      8.10%     88.89% # Class of committed instruction
system.cpu.commit.op_class_0::MemWrite            763      6.91%     95.80% # Class of committed instruction
system.cpu.commit.op_class_0::FloatMemRead           52      0.47%     96.28% # Class of committed instruction
system.cpu.commit.op_class_0::FloatMemWrite          411      3.72%    100.00% # Class of committed instruction
system.cpu.commit.op_class_0::IprAccess             0      0.00%    100.00% # Class of committed instruction
system.cpu.commit.op_class_0::InstPrefetch            0      0.00%    100.00% # Class of committed instruction
system.cpu.commit.op_class_0::total             11035                       # Class of committed instruction
system.cpu.commit.refs                           2120                       # Number of memory references committed
system.cpu.commit.swp_count                         0                       # Number of s/w prefetches committed
system.cpu.commit.vec_insts                         0                       # Number of committed Vector instructions.
system.cpu.committedInsts                        5409                       # Number of Instructions Simulated
system.cpu.committedOps                         11035                       # Number of Ops (including micro ops) Simulated
system.cpu.cpi                               7.857275                       # CPI: Cycles Per Instruction
system.cpu.cpi_total                         7.857275                       # CPI: Total CPI of All Threads
system.cpu.decode.BlockedCycles                  9577                       # Number of cycles decode is blocked
system.cpu.decode.DecodedInsts                  27673                       # Number of instructions handled by decode
system.cpu.decode.IdleCycles                    10651                       # Number of cycles decode is idle
system.cpu.decode.RunCycles                      3530                       # Number of cycles decode is running
system.cpu.decode.SquashCycles                    667                       # Number of cycles decode is squashing
system.cpu.decode.UnblockCycles                   416                       # Number of cycles decode is unblocking
system.cpu.dtb.rdAccesses                        1774                       # TLB accesses on read requests
system.cpu.dtb.rdMisses                            50                       # TLB misses on read requests
system.cpu.dtb.wrAccesses                        1549                       # TLB accesses on write requests
system.cpu.dtb.wrMisses                            13                       # TLB misses on write requests
system.cpu.fetch.Branches                        3329                       # Number of branches that fetch encountered
system.cpu.fetch.CacheLines                      1928                       # Number of cache lines fetched
system.cpu.fetch.Cycles                         11417                       # Number of cycles fetch has run and was not squashing or blocked
system.cpu.fetch.IcacheSquashes                   321                       # Number of outstanding Icache misses that were squashed
system.cpu.fetch.IcacheWaitRetryStallCycles            2                       # Number of stall cycles due to full MSHR
system.cpu.fetch.Insts                          14881                       # Number of instructions fetch has processed
system.cpu.fetch.MiscStallCycles                   89                       # Number of cycles fetch has spent waiting on interrupts, or bad addresses, or out of MSHRs
system.cpu.fetch.PendingQuiesceStallCycles            6                       # Number of stall cycles due to pending quiesce instructions
system.cpu.fetch.PendingTrapStallCycles           549                       # Number of stall cycles due to pending traps
system.cpu.fetch.SquashCycles                    1334                       # Number of cycles fetch has spent squashing
system.cpu.fetch.branchRate                  0.078329                       # Number of branch fetches per cycle
system.cpu.fetch.icacheStallCycles              12111                       # Number of cycles fetch is stalled on an Icache miss
system.cpu.fetch.predictedBranches                620                       # Number of branches that fetch has predicted taken
system.cpu.fetch.rate                        0.350141                       # Number of inst fetches per cycle
system.cpu.fetch.rateDist::samples              24841                       # Number of instructions fetched each cycle (Total)
system.cpu.fetch.rateDist::mean              1.216980                       # Number of instructions fetched each cycle (Total)
system.cpu.fetch.rateDist::stdev             2.751873                       # Number of instructions fetched each cycle (Total)
system.cpu.fetch.rateDist::underflows               0      0.00%      0.00% # Number of instructions fetched each cycle (Total)
system.cpu.fetch.rateDist::0                    20384     82.06%     82.06% # Number of instructions fetched each cycle (Total)
system.cpu.fetch.rateDist::1                      165      0.66%     82.72% # Number of instructions fetched each cycle (Total)
system.cpu.fetch.rateDist::2                      193      0.78%     83.50% # Number of instructions fetched each cycle (Total)
system.cpu.fetch.rateDist::3                      196      0.79%     84.29% # Number of instructions fetched each cycle (Total)
system.cpu.fetch.rateDist::4                      232      0.93%     85.22% # Number of instructions fetched each cycle (Total)
system.cpu.fetch.rateDist::5                      209      0.84%     86.06% # Number of instructions fetched each cycle (Total)
system.cpu.fetch.rateDist::6                      174      0.70%     86.76% # Number of instructions fetched each cycle (Total)
system.cpu.fetch.rateDist::7                      229      0.92%     87.69% # Number of instructions fetched each cycle (Total)
system.cpu.fetch.rateDist::8                     3059     12.31%    100.00% # Number of instructions fetched each cycle (Total)
system.cpu.fetch.rateDist::overflows                0      0.00%    100.00% # Number of instructions fetched each cycle (Total)
system.cpu.fetch.rateDist::min_value                0                       # Number of instructions fetched each cycle (Total)
system.cpu.fetch.rateDist::max_value                8                       # Number of instructions fetched each cycle (Total)
system.cpu.fetch.rateDist::total                24841                       # Number of instructions fetched each cycle (Total)
system.cpu.fp_regfile_reads                      3808                       # number of floating regfile reads
system.cpu.fp_regfile_writes                     1489                       # number of floating regfile writes
system.cpu.idleCycles                           17659                       # Total number of cycles that the CPU has spent unscheduled due to idling
system.cpu.iew.branchMispredicts                  828                       # Number of branch mispredicts detected at execute
system.cpu.iew.exec_branches                     1599                       # Number of branches executed
system.cpu.iew.exec_nop                             0                       # number of nop insts executed
system.cpu.iew.exec_rate                     0.430165                       # Inst execution rate
system.cpu.iew.exec_refs                         3338                       # number of memory reference insts executed
system.cpu.iew.exec_stores                       1548                       # Number of stores executed
system.cpu.iew.exec_swp                             0                       # number of swp insts executed
system.cpu.iew.iewBlockCycles                    1520                       # Number of cycles IEW is blocking
system.cpu.iew.iewDispLoadInsts                  2312                       # Number of dispatched load instructions
system.cpu.iew.iewDispNonSpecInsts                 16                       # Number of dispatched non-speculative instructions
system.cpu.iew.iewDispSquashedInsts                47                       # Number of squashed instructions skipped by dispatch
system.cpu.iew.iewDispStoreInsts                 2079                       # Number of dispatched store instructions
system.cpu.iew.iewDispatchedInsts               22718                       # Number of instructions dispatched to IQ
system.cpu.iew.iewExecLoadInsts                  1790                       # Number of load instructions executed
system.cpu.iew.iewExecSquashedInsts              1076                       # Number of squashed instructions skipped in execute
system.cpu.iew.iewExecutedInsts                 18282                       # Number of executed instructions
system.cpu.iew.iewIQFullEvents                      6                       # Number of times the IQ has become full, causing a stall
system.cpu.iew.iewIdleCycles                        0                       # Number of cycles IEW is idle
system.cpu.iew.iewLSQFullEvents                  1003                       # Number of times the LSQ has become full, causing a stall
system.cpu.iew.iewSquashCycles                    667                       # Number of cycles IEW is squashing
system.cpu.iew.iewUnblockCycles                  1009                       # Number of cycles IEW is unblocking
system.cpu.iew.lsq.thread0.blockedLoads             0                       # Number of blocked loads due to partial load-store forwarding
system.cpu.iew.lsq.thread0.cacheBlocked             5                       # Number of times an access to memory failed due to the cache being blocked
system.cpu.iew.lsq.thread0.forwLoads              101                       # Number of loads that had data forwarded from stores
system.cpu.iew.lsq.thread0.ignoredResponses            6                       # Number of memory responses ignored because the instruction is squashed
system.cpu.iew.lsq.thread0.invAddrLoads             0                       # Number of loads ignored due to an invalid address
system.cpu.iew.lsq.thread0.invAddrSwpfs             0                       # Number of software prefetches ignored due to an invalid address
system.cpu.iew.lsq.thread0.memOrderViolation            3                       # Number of memory ordering violations
system.cpu.iew.lsq.thread0.rescheduledLoads            2                       # Number of loads that were rescheduled
system.cpu.iew.lsq.thread0.squashedLoads         1363                       # Number of loads squashed
system.cpu.iew.lsq.thread0.squashedStores          903                       # Number of stores squashed
system.cpu.iew.memOrderViolationEvents              3                       # Number of memory order violations
system.cpu.iew.predictedNotTakenIncorrect          800                       # Number of branches that were predicted not taken incorrectly
system.cpu.iew.predictedTakenIncorrect             28                       # Number of branches that were predicted taken incorrectly
system.cpu.iew.wb_consumers                     19090                       # num instructions consuming a value
system.cpu.iew.wb_count                         17650                       # cumulative count of insts written-back
system.cpu.iew.wb_fanout                     0.634259                       # average fanout of values written-back
system.cpu.iew.wb_producers                     12108                       # num instructions producing a value
system.cpu.iew.wb_rate                       0.415294                       # insts written-back per cycle
system.cpu.iew.wb_sent                          17917                       # cumulative count of insts sent to commit
system.cpu.int_regfile_reads                    22095                       # number of integer regfile reads
system.cpu.int_regfile_writes                   12989                       # number of integer regfile writes
system.cpu.ipc                               0.127271                       # IPC: Instructions Per Cycle
system.cpu.ipc_total                         0.127271                       # IPC: Total IPC of All Threads
system.cpu.iq.FU_type_0::No_OpClass               307      1.59%      1.59% # Type of FU issued
system.cpu.iq.FU_type_0::IntAlu                 14380     74.27%     75.86% # Type of FU issued
system.cpu.iq.FU_type_0::IntMult                    4      0.02%     75.88% # Type of FU issued
system.cpu.iq.FU_type_0::IntDiv                    17      0.09%     75.97% # Type of FU issued
system.cpu.iq.FU_type_0::FloatAdd                  10      0.05%     76.02% # Type of FU issued
system.cpu.iq.FU_type_0::FloatCmp                   0      0.00%     76.02% # Type of FU issued
system.cpu.iq.FU_type_0::FloatCvt                   0      0.00%     76.02% # Type of FU issued
system.cpu.iq.FU_type_0::FloatMult                  0      0.00%     76.02% # Type of FU issued
system.cpu.iq.FU_type_0::FloatMultAcc               0      0.00%     76.02% # Type of FU issued
system.cpu.iq.FU_type_0::FloatDiv                   0      0.00%     76.02% # Type of FU issued
system.cpu.iq.FU_type_0::FloatMisc                  0      0.00%     76.02% # Type of FU issued
system.cpu.iq.FU_type_0::FloatSqrt                  0      0.00%     76.02% # Type of FU issued
system.cpu.iq.FU_type_0::SimdAdd                  378      1.95%     77.97% # Type of FU issued
system.cpu.iq.FU_type_0::SimdAddAcc                 0      0.00%     77.97% # Type of FU issued
system.cpu.iq.FU_type_0::SimdAlu                   68      0.35%     78.32% # Type of FU issued
system.cpu.iq.FU_type_0::SimdCmp                    0      0.00%     78.32% # Type of FU issued
system.cpu.iq.FU_type_0::SimdCvt                  110      0.57%     78.89% # Type of FU issued
system.cpu.iq.FU_type_0::SimdMisc                 214      1.11%     80.00% # Type of FU issued
system.cpu.iq.FU_type_0::SimdMult                   0      0.00%     80.00% # Type of FU issued
system.cpu.iq.FU_type_0::SimdMultAcc                0      0.00%     80.00% # Type of FU issued
system.cpu.iq.FU_type_0::SimdShift                188      0.97%     80.97% # Type of FU issued
system.cpu.iq.FU_type_0::SimdShiftAcc               0      0.00%     80.97% # Type of FU issued
system.cpu.iq.FU_type_0::SimdDiv                    0      0.00%     80.97% # Type of FU issued
system.cpu.iq.FU_type_0::SimdSqrt                   0      0.00%     80.97% # Type of FU issued
system.cpu.iq.FU_type_0::SimdFloatAdd               0      0.00%     80.97% # Type of FU issued
system.cpu.iq.FU_type_0::SimdFloatAlu               0      0.00%     80.97% # Type of FU issued
system.cpu.iq.FU_type_0::SimdFloatCmp               0      0.00%     80.97% # Type of FU issued
system.cpu.iq.FU_type_0::SimdFloatCvt               0      0.00%     80.97% # Type of FU issued
system.cpu.iq.FU_type_0::SimdFloatDiv               0      0.00%     80.97% # Type of FU issued
system.cpu.iq.FU_type_0::SimdFloatMisc              0      0.00%     80.97% # Type of FU issued
system.cpu.iq.FU_type_0::SimdFloatMult              0      0.00%     80.97% # Type of FU issued
system.cpu.iq.FU_type_0::SimdFloatMultAcc            0      0.00%     80.97% # Type of FU issued
system.cpu.iq.FU_type_0::SimdFloatSqrt              0      0.00%     80.97% # Type of FU issued
system.cpu.iq.FU_type_0::SimdReduceAdd              0      0.00%     80.97% # Type of FU issued
system.cpu.iq.FU_type_0::SimdReduceAlu              0      0.00%     80.97% # Type of FU issued
system.cpu.iq.FU_type_0::SimdReduceCmp              0      0.00%     80.97% # Type of FU issued
system.cpu.iq.FU_type_0::SimdFloatReduceAdd            0      0.00%     80.97% # Type of FU issued
system.cpu.iq.FU_type_0::SimdFloatReduceCmp            0      0.00%     80.97% # Type of FU issued
system.cpu.iq.FU_type_0::SimdAes                    0      0.00%     80.97% # Type of FU issued
system.cpu.iq.FU_type_0::SimdAesMix                 0      0.00%     80.97% # Type of FU issued
system.cpu.iq.FU_type_0::SimdSha1Hash               0      0.00%     80.97% # Type of FU issued
system.cpu.iq.FU_type_0::SimdSha1Hash2              0      0.00%     80.97% # Type of FU issued
system.cpu.iq.FU_type_0::SimdSha256Hash             0      0.00%     80.97% # Type of FU issued
system.cpu.iq.FU_type_0::SimdSha256Hash2            0      0.00%     80.97% # Type of FU issued
system.cpu.iq.FU_type_0::SimdShaSigma2              0      0.00%     80.97% # Type of FU issued
system.cpu.iq.FU_type_0::SimdShaSigma3              0      0.00%     80.97% # Type of FU issued
system.cpu.iq.FU_type_0::SimdPredAlu                0      0.00%     80.97% # Type of FU issued
system.cpu.iq.FU_type_0::MemRead                 1969     10.17%     91.14% # Type of FU issued
system.cpu.iq.FU_type_0::MemWrite                1223      6.32%     97.45% # Type of FU issued
system.cpu.iq.FU_type_0::FloatMemRead              59      0.30%     97.76% # Type of FU issued
system.cpu.iq.FU_type_0::FloatMemWrite            434      2.24%    100.00% # Type of FU issued
system.cpu.iq.FU_type_0::IprAccess                  0      0.00%    100.00% # Type of FU issued
system.cpu.iq.FU_type_0::InstPrefetch               0      0.00%    100.00% # Type of FU issued
system.cpu.iq.FU_type_0::total                  19361                       # Type of FU issued
system.cpu.iq.fp_alu_accesses                    2005                       # Number of floating point alu accesses
system.cpu.iq.fp_inst_queue_reads                3990                       # Number of floating instruction queue reads
system.cpu.iq.fp_inst_queue_wakeup_accesses         1964                       # Number of floating instruction queue wakeup accesses
system.cpu.iq.fp_inst_queue_writes               2055                       # Number of floating instruction queue writes
system.cpu.iq.fu_busy_cnt                         275                       # FU busy when requested
system.cpu.iq.fu_busy_rate                   0.014204                       # FU busy rate (busy events/executed inst)
system.cpu.iq.fu_full::No_OpClass                   0      0.00%      0.00% # attempts to use FU when none available
system.cpu.iq.fu_full::IntAlu                     240     87.27%     87.27% # attempts to use FU when none available
system.cpu.iq.fu_full::IntMult                      0      0.00%     87.27% # attempts to use FU when none available
system.cpu.iq.fu_full::IntDiv                       0      0.00%     87.27% # attempts to use FU when none available
system.cpu.iq.fu_full::FloatAdd                     0      0.00%     87.27% # attempts to use FU when none available
system.cpu.iq.fu_full::FloatCmp                     0      0.00%     87.27% # attempts to use FU when none available
system.cpu.iq.fu_full::FloatCvt                     0      0.00%     87.27% # attempts to use FU when none available
system.cpu.iq.fu_full::FloatMult                    0      0.00%     87.27% # attempts to use FU when none available
system.cpu.iq.fu_full::FloatMultAcc                 0      0.00%     87.27% # attempts to use FU when none available
system.cpu.iq.fu_full::FloatDiv                     0      0.00%     87.27% # attempts to use FU when none available
system.cpu.iq.fu_full::FloatMisc                    0      0.00%     87.27% # attempts to use FU when none available
system.cpu.iq.fu_full::FloatSqrt                    0      0.00%     87.27% # attempts to use FU when none available
system.cpu.iq.fu_full::SimdAdd                      0      0.00%     87.27% # attempts to use FU when none available
system.cpu.iq.fu_full::SimdAddAcc                   0      0.00%     87.27% # attempts to use FU when none available
system.cpu.iq.fu_full::SimdAlu                      8      2.91%     90.18% # attempts to use FU when none available
system.cpu.iq.fu_full::SimdCmp                      0      0.00%     90.18% # attempts to use FU when none available
system.cpu.iq.fu_full::SimdCvt                      1      0.36%     90.55% # attempts to use FU when none available
system.cpu.iq.fu_full::SimdMisc                     0      0.00%     90.55% # attempts to use FU when none available
system.cpu.iq.fu_full::SimdMult                     0      0.00%     90.55% # attempts to use FU when none available
system.cpu.iq.fu_full::SimdMultAcc                  0      0.00%     90.55% # attempts to use FU when none available
system.cpu.iq.fu_full::SimdShift                    0      0.00%     90.55% # attempts to use FU when none available
system.cpu.iq.fu_full::SimdShiftAcc                 0      0.00%     90.55% # attempts to use FU when none available
system.cpu.iq.fu_full::SimdDiv                      0      0.00%     90.55% # attempts to use FU when none available
system.cpu.iq.fu_full::SimdSqrt                     0      0.00%     90.55% # attempts to use FU when none available
system.cpu.iq.fu_full::SimdFloatAdd                 0      0.00%     90.55% # attempts to use FU when none available
system.cpu.iq.fu_full::SimdFloatAlu                 0      0.00%     90.55% # attempts to use FU when none available
system.cpu.iq.fu_full::SimdFloatCmp                 0      0.00%     90.55% # attempts to use FU when none available
system.cpu.iq.fu_full::SimdFloatCvt                 0      0.00%     90.55% # attempts to use FU when none available
system.cpu.iq.fu_full::SimdFloatDiv                 0      0.00%     90.55% # attempts to use FU when none available
system.cpu.iq.fu_full::SimdFloatMisc                0      0.00%     90.55% # attempts to use FU when none available
system.cpu.iq.fu_full::SimdFloatMult                0      0.00%     90.55% # attempts to use FU when none available
system.cpu.iq.fu_full::SimdFloatMultAcc             0      0.00%     90.55% # attempts to use FU when none available
system.cpu.iq.fu_full::SimdFloatSqrt                0      0.00%     90.55% # attempts to use FU when none available
system.cpu.iq.fu_full::SimdReduceAdd                0      0.00%     90.55% # attempts to use FU when none available
system.cpu.iq.fu_full::SimdReduceAlu                0      0.00%     90.55% # attempts to use FU when none available
system.cpu.iq.fu_full::SimdReduceCmp                0      0.00%     90.55% # attempts to use FU when none available
system.cpu.iq.fu_full::SimdFloatReduceAdd            0      0.00%     90.55% # attempts to use FU when none available
system.cpu.iq.fu_full::SimdFloatReduceCmp            0      0.00%     90.55% # attempts to use FU when none available
system.cpu.iq.fu_full::SimdAes                      0      0.00%     90.55% # attempts to use FU when none available
system.cpu.iq.fu_full::SimdAesMix                   0      0.00%     90.55% # attempts to use FU when none available
system.cpu.iq.fu_full::SimdSha1Hash                 0      0.00%     90.55% # attempts to use FU when none available
system.cpu.iq.fu_full::SimdSha1Hash2                0      0.00%     90.55% # attempts to use FU when none available
system.cpu.iq.fu_full::SimdSha256Hash               0      0.00%     90.55% # attempts to use FU when none available
system.cpu.iq.fu_full::SimdSha256Hash2              0      0.00%     90.55% # attempts to use FU when none available
system.cpu.iq.fu_full::SimdShaSigma2                0      0.00%     90.55% # attempts to use FU when none available
system.cpu.iq.fu_full::SimdShaSigma3                0      0.00%     90.55% # attempts to use FU when none available
system.cpu.iq.fu_full::SimdPredAlu                  0      0.00%     90.55% # attempts to use FU when none available
system.cpu.iq.fu_full::MemRead                      9      3.27%     93.82% # attempts to use FU when none available
system.cpu.iq.fu_full::MemWrite                     0      0.00%     93.82% # attempts to use FU when none available
system.cpu.iq.fu_full::FloatMemRead                 3      1.09%     94.91% # attempts to use FU when none available
system.cpu.iq.fu_full::FloatMemWrite               14      5.09%    100.00% # attempts to use FU when none available
system.cpu.iq.fu_full::IprAccess                    0      0.00%    100.00% # attempts to use FU when none available
system.cpu.iq.fu_full::InstPrefetch                 0      0.00%    100.00% # attempts to use FU when none available
system.cpu.iq.int_alu_accesses                  17324                       # Number of integer alu accesses
system.cpu.iq.int_inst_queue_reads              59969                       # Number of integer instruction queue reads
system.cpu.iq.int_inst_queue_wakeup_accesses        15686                       # Number of integer instruction queue wakeup accesses
system.cpu.iq.int_inst_queue_writes             32337                       # Number of integer instruction queue writes
system.cpu.iq.iqInstsAdded                      22694                       # Number of instructions added to the IQ (excludes non-spec)
system.cpu.iq.iqInstsIssued                     19361                       # Number of instructions issued
system.cpu.iq.iqNonSpecInstsAdded                  24                       # Number of non-speculative instructions added to the IQ
system.cpu.iq.iqSquashedInstsExamined           11671                       # Number of squashed instructions iterated over during squash; mainly for profiling
system.cpu.iq.iqSquashedInstsIssued               124                       # Number of squashed instructions issued
system.cpu.iq.iqSquashedNonSpecRemoved             15                       # Number of squashed non-spec instructions that were removed
system.cpu.iq.iqSquashedOperandsExamined        16173                       # Number of squashed operands that are examined and possibly removed from graph
system.cpu.iq.issued_per_cycle::samples         24841                       # Number of insts issued each cycle
system.cpu.iq.issued_per_cycle::mean         0.779397                       # Number of insts issued each cycle
system.cpu.iq.issued_per_cycle::stdev        1.787831                       # Number of insts issued each cycle
system.cpu.iq.issued_per_cycle::underflows            0      0.00%      0.00% # Number of insts issued each cycle
system.cpu.iq.issued_per_cycle::0               19498     78.49%     78.49% # Number of insts issued each cycle
system.cpu.iq.issued_per_cycle::1                1220      4.91%     83.40% # Number of insts issued each cycle
system.cpu.iq.issued_per_cycle::2                 850      3.42%     86.82% # Number of insts issued each cycle
system.cpu.iq.issued_per_cycle::3                 574      2.31%     89.13% # Number of insts issued each cycle
system.cpu.iq.issued_per_cycle::4                 848      3.41%     92.55% # Number of insts issued each cycle
system.cpu.iq.issued_per_cycle::5                 596      2.40%     94.95% # Number of insts issued each cycle
system.cpu.iq.issued_per_cycle::6                 654      2.63%     97.58% # Number of insts issued each cycle
system.cpu.iq.issued_per_cycle::7                 385      1.55%     99.13% # Number of insts issued each cycle
system.cpu.iq.issued_per_cycle::8                 216      0.87%    100.00% # Number of insts issued each cycle
system.cpu.iq.issued_per_cycle::overflows            0      0.00%    100.00% # Number of insts issued each cycle
system.cpu.iq.issued_per_cycle::min_value            0                       # Number of insts issued each cycle
system.cpu.iq.issued_per_cycle::max_value            8                       # Number of insts issued each cycle
system.cpu.iq.issued_per_cycle::total           24841                       # Number of insts issued each cycle
system.cpu.iq.rate                           0.455553                       # Inst issue rate
system.cpu.iq.vec_alu_accesses                      0                       # Number of vector alu accesses
system.cpu.iq.vec_inst_queue_reads                  0                       # Number of vector instruction queue reads
system.cpu.iq.vec_inst_queue_wakeup_accesses            0                       # Number of vector instruction queue wakeup accesses
system.cpu.iq.vec_inst_queue_writes                 0                       # Number of vector instruction queue writes
system.cpu.itb.rdAccesses                           0                       # TLB accesses on read requests
system.cpu.itb.rdMisses                             0                       # TLB misses on read requests
system.cpu.itb.wrAccesses                        2022                       # TLB accesses on write requests
system.cpu.itb.wrMisses                           129                       # TLB misses on write requests
system.cpu.memDep0.conflictingLoads                 3                       # Number of conflicting loads.
system.cpu.memDep0.conflictingStores               11                       # Number of conflicting stores.
system.cpu.memDep0.insertedLoads                 2312                       # Number of loads inserted to the mem dependence unit.
system.cpu.memDep0.insertedStores                2079                       # Number of stores inserted to the mem dependence unit.
system.cpu.misc_regfile_reads                    7770                       # number of misc regfile reads
system.cpu.numCycles                            42500                       # number of cpu cycles simulated
system.cpu.numWorkItemsCompleted                    0                       # number of work items this cpu completed
system.cpu.numWorkItemsStarted                      0                       # number of work items this cpu started
system.cpu.rename.BlockCycles                    3035                       # Number of cycles rename is blocking
system.cpu.rename.CommittedMaps                 11738                       # Number of HB maps that are committed
system.cpu.rename.IQFullEvents                     78                       # Number of times rename has blocked due to IQ full
system.cpu.rename.IdleCycles                    10945                       # Number of cycles rename is idle
system.cpu.rename.ROBFullEvents                    39                       # Number of times rename has blocked due to ROB full
system.cpu.rename.RenameLookups                 64039                       # Number of register rename lookups that rename has made
system.cpu.rename.RenamedInsts                  25944                       # Number of instructions processed by rename
system.cpu.rename.RenamedOperands               27617                       # Number of destination operands rename has renamed
system.cpu.rename.RunCycles                      3611                       # Number of cycles rename is running
system.cpu.rename.SQFullEvents                   5496                       # Number of times rename has blocked due to SQ full
system.cpu.rename.SquashCycles                    667                       # Number of cycles rename is squashing
system.cpu.rename.UnblockCycles                  5635                       # Number of cycles rename is unblocking
system.cpu.rename.UndoneMaps                    15863                       # Number of HB maps that are undone due to squashing
system.cpu.rename.fp_rename_lookups              3884                       # Number of floating rename lookups
system.cpu.rename.int_rename_lookups            35195                       # Number of integer rename lookups
system.cpu.rename.serializeStallCycles            948                       # count of cycles rename stalled for serializing inst
system.cpu.rename.serializingInsts                 18                       # count of serializing insts renamed
system.cpu.rename.skidInsts                      1503                       # count of insts added to the skid buffer
system.cpu.rename.tempSerializingInsts             16                       # count of temporary serializing insts renamed
system.cpu.rob.rob_reads                        45021                       # The number of ROB reads
system.cpu.rob.rob_writes                       47575                       # The number of ROB writes
system.cpu.timesIdled                             204                       # Number of times that the entire CPU went into an idle state and unscheduled itself
system.cpu.workload.numSyscalls                     8                       # Number of system calls
system.membus.snoop_filter.hit_multi_requests            0                       # Number of requests hitting in the snoop filter with multiple (>1) holders of the requested data.
system.membus.snoop_filter.hit_multi_snoops            0                       # Number of snoops hitting in the snoop filter with multiple (>1) holders of the requested data.
system.membus.snoop_filter.hit_single_requests           60                       # Number of requests hitting in the snoop filter with a single holder of the requested data.
system.membus.snoop_filter.hit_single_snoops            0                       # Number of snoops hitting in the snoop filter with a single holder of the requested data.
system.membus.snoop_filter.tot_requests           627                       # Total number of requests made to the snoop filter.
system.membus.snoop_filter.tot_snoops               0                       # Total number of snoops made to the snoop filter.
system.membus.pwrStateResidencyTicks::UNDEFINED     21249500                       # Cumulative time (in ticks) in various power states
system.membus.trans_dist::ReadResp                467                       # Transaction distribution
system.membus.trans_dist::WritebackClean           59                       # Transaction distribution
system.membus.trans_dist::ReadExReq               101                       # Transaction distribution
system.membus.trans_dist::ReadExResp              101                       # Transaction distribution
system.membus.trans_dist::ReadCleanReq            371                       # Transaction distribution
system.membus.trans_dist::ReadSharedReq            96                       # Transaction distribution
system.membus.pkt_count_system.cpu.icache.mem_side::system.mem_ctrls.port          801                       # Packet count per connected master and slave (bytes)
system.membus.pkt_count_system.cpu.icache.mem_side::total          801                       # Packet count per connected master and slave (bytes)
system.membus.pkt_count_system.cpu.dcache.mem_side::system.mem_ctrls.port          394                       # Packet count per connected master and slave (bytes)
system.membus.pkt_count_system.cpu.dcache.mem_side::total          394                       # Packet count per connected master and slave (bytes)
system.membus.pkt_count::total                   1195                       # Packet count per connected master and slave (bytes)
system.membus.pkt_size_system.cpu.icache.mem_side::system.mem_ctrls.port        27520                       # Cumulative packet size per connected master and slave (bytes)
system.membus.pkt_size_system.cpu.icache.mem_side::total        27520                       # Cumulative packet size per connected master and slave (bytes)
system.membus.pkt_size_system.cpu.dcache.mem_side::system.mem_ctrls.port        12608                       # Cumulative packet size per connected master and slave (bytes)
system.membus.pkt_size_system.cpu.dcache.mem_side::total        12608                       # Cumulative packet size per connected master and slave (bytes)
system.membus.pkt_size::total                   40128                       # Cumulative packet size per connected master and slave (bytes)
system.membus.snoops                                0                       # Total snoops (count)
system.membus.snoopTraffic                          0                       # Total snoop traffic (bytes)
system.membus.snoop_fanout::samples               568                       # Request fanout histogram
system.membus.snoop_fanout::mean             0.001761                       # Request fanout histogram
system.membus.snoop_fanout::stdev            0.041959                       # Request fanout histogram
system.membus.snoop_fanout::underflows              0      0.00%      0.00% # Request fanout histogram
system.membus.snoop_fanout::0                     567     99.82%     99.82% # Request fanout histogram
system.membus.snoop_fanout::1                       1      0.18%    100.00% # Request fanout histogram
system.membus.snoop_fanout::2                       0      0.00%    100.00% # Request fanout histogram
system.membus.snoop_fanout::3                       0      0.00%    100.00% # Request fanout histogram
system.membus.snoop_fanout::4                       0      0.00%    100.00% # Request fanout histogram
system.membus.snoop_fanout::overflows               0      0.00%    100.00% # Request fanout histogram
system.membus.snoop_fanout::min_value               0                       # Request fanout histogram
system.membus.snoop_fanout::max_value               1                       # Request fanout histogram
system.membus.snoop_fanout::total                 568                       # Request fanout histogram
system.membus.reqLayer2.occupancy              969000                       # Layer occupancy (ticks)
system.membus.reqLayer2.utilization               4.6                       # Layer utilization (%)
system.membus.respLayer1.occupancy            1971750                       # Layer occupancy (ticks)
system.membus.respLayer1.utilization              9.3                       # Layer utilization (%)
system.membus.respLayer2.occupancy            1054000                       # Layer occupancy (ticks)
system.membus.respLayer2.utilization              5.0                       # Layer utilization (%)
system.voltage_domain.voltage                       1                       # Voltage in Volts
system.clk_domain.clock                          1000                       # Clock period in ticks
system.cpu_voltage_domain.voltage                   1                       # Voltage in Volts
system.mem_ctrls.pwrStateResidencyTicks::UNDEFINED     21249500                       # Cumulative time (in ticks) in various power states
system.mem_ctrls.bytes_read::.cpu.inst          23744                       # Number of bytes read from this memory
system.mem_ctrls.bytes_read::.cpu.data          12608                       # Number of bytes read from this memory
system.mem_ctrls.bytes_read::total              36352                       # Number of bytes read from this memory
system.mem_ctrls.bytes_inst_read::.cpu.inst        23744                       # Number of instructions bytes read from this memory
system.mem_ctrls.bytes_inst_read::total         23744                       # Number of instructions bytes read from this memory
system.mem_ctrls.num_reads::.cpu.inst             371                       # Number of read requests responded to by this memory
system.mem_ctrls.num_reads::.cpu.data             197                       # Number of read requests responded to by this memory
system.mem_ctrls.num_reads::total                 568                       # Number of read requests responded to by this memory
system.mem_ctrls.bw_read::.cpu.inst        1117390997                       # Total read bandwidth from this memory (bytes/s)
system.mem_ctrls.bw_read::.cpu.data         593331608                       # Total read bandwidth from this memory (bytes/s)
system.mem_ctrls.bw_read::total            1710722605                       # Total read bandwidth from this memory (bytes/s)
system.mem_ctrls.bw_inst_read::.cpu.inst   1117390997                       # Instruction read bandwidth from this memory (bytes/s)
system.mem_ctrls.bw_inst_read::total       1117390997                       # Instruction read bandwidth from this memory (bytes/s)
system.mem_ctrls.bw_total::.cpu.inst       1117390997                       # Total bandwidth to/from this memory (bytes/s)
system.mem_ctrls.bw_total::.cpu.data        593331608                       # Total bandwidth to/from this memory (bytes/s)
system.mem_ctrls.bw_total::total           1710722605                       # Total bandwidth to/from this memory (bytes/s)
system.mem_ctrls.avgPriority_.writebacks::samples        59.00                       # Average QoS priority value for accepted requests
system.mem_ctrls.avgPriority_.cpu.inst::samples       371.00                       # Average QoS priority value for accepted requests
system.mem_ctrls.avgPriority_.cpu.data::samples       197.00                       # Average QoS priority value for accepted requests
system.mem_ctrls.priorityMinLatency      0.000000018750                       # per QoS priority minimum request to response latency (s)
system.mem_ctrls.priorityMaxLatency      0.000016651250                       # per QoS priority maximum request to response latency (s)
system.mem_ctrls.numReadWriteTurnArounds            2                       # Number of turnarounds from READ to WRITE
system.mem_ctrls.numWriteReadTurnArounds            2                       # Number of turnarounds from WRITE to READ
system.mem_ctrls.numStayReadState                1173                       # Number of times bus staying in READ state
system.mem_ctrls.numStayWriteState                 30                       # Number of times bus staying in WRITE state
system.mem_ctrls.readReqs                         568                       # Number of read requests accepted
system.mem_ctrls.writeReqs                         59                       # Number of write requests accepted
system.mem_ctrls.readBursts                       568                       # Number of DRAM read bursts, including those serviced by the write queue
system.mem_ctrls.writeBursts                       59                       # Number of DRAM write bursts, including those merged in the write queue
system.mem_ctrls.servicedByWrQ                      0                       # Number of DRAM read bursts serviced by the write queue
system.mem_ctrls.mergedWrBursts                     0                       # Number of DRAM write bursts merged with an existing one
system.mem_ctrls.neitherReadNorWriteReqs            0                       # Number of requests that are neither read nor write
system.mem_ctrls.perBankRdBursts::0               112                       # Per bank write bursts
system.mem_ctrls.perBankRdBursts::1                16                       # Per bank write bursts
system.mem_ctrls.perBankRdBursts::2                19                       # Per bank write bursts
system.mem_ctrls.perBankRdBursts::3                 7                       # Per bank write bursts
system.mem_ctrls.perBankRdBursts::4                 2                       # Per bank write bursts
system.mem_ctrls.perBankRdBursts::5                14                       # Per bank write bursts
system.mem_ctrls.perBankRdBursts::6                65                       # Per bank write bursts
system.mem_ctrls.perBankRdBursts::7                19                       # Per bank write bursts
system.mem_ctrls.perBankRdBursts::8                 0                       # Per bank write bursts
system.mem_ctrls.perBankRdBursts::9                13                       # Per bank write bursts
system.mem_ctrls.perBankRdBursts::10                9                       # Per bank write bursts
system.mem_ctrls.perBankRdBursts::11                3                       # Per bank write bursts
system.mem_ctrls.perBankRdBursts::12               88                       # Per bank write bursts
system.mem_ctrls.perBankRdBursts::13               61                       # Per bank write bursts
system.mem_ctrls.perBankRdBursts::14              105                       # Per bank write bursts
system.mem_ctrls.perBankRdBursts::15               35                       # Per bank write bursts
system.mem_ctrls.perBankWrBursts::0                11                       # Per bank write bursts
system.mem_ctrls.perBankWrBursts::1                 3                       # Per bank write bursts
system.mem_ctrls.perBankWrBursts::2                 3                       # Per bank write bursts
system.mem_ctrls.perBankWrBursts::3                 0                       # Per bank write bursts
system.mem_ctrls.perBankWrBursts::4                 0                       # Per bank write bursts
system.mem_ctrls.perBankWrBursts::5                 0                       # Per bank write bursts
system.mem_ctrls.perBankWrBursts::6                15                       # Per bank write bursts
system.mem_ctrls.perBankWrBursts::7                 0                       # Per bank write bursts
system.mem_ctrls.perBankWrBursts::8                 0                       # Per bank write bursts
system.mem_ctrls.perBankWrBursts::9                 0                       # Per bank write bursts
system.mem_ctrls.perBankWrBursts::10                0                       # Per bank write bursts
system.mem_ctrls.perBankWrBursts::11                0                       # Per bank write bursts
system.mem_ctrls.perBankWrBursts::12                0                       # Per bank write bursts
system.mem_ctrls.perBankWrBursts::13                0                       # Per bank write bursts
system.mem_ctrls.perBankWrBursts::14                0                       # Per bank write bursts
system.mem_ctrls.perBankWrBursts::15                0                       # Per bank write bursts
system.mem_ctrls.avgRdQLen                       1.76                       # Average read queue length when enqueuing
system.mem_ctrls.avgWrQLen                       9.11                       # Average write queue length when enqueuing
system.mem_ctrls.totQLat                      5135750                       # Total ticks spent queuing
system.mem_ctrls.totBusLat                    2840000                       # Total ticks spent in databus transfers
system.mem_ctrls.totMemAccLat                15785750                       # Total ticks spent from burst creation until serviced by the DRAM
system.mem_ctrls.avgQLat                      9041.81                       # Average queueing delay per DRAM burst
system.mem_ctrls.avgBusLat                    5000.00                       # Average bus latency per DRAM burst
system.mem_ctrls.avgMemAccLat                27791.81                       # Average memory access latency per DRAM burst
system.mem_ctrls.numRdRetry                         0                       # Number of times read queue was full causing retry
system.mem_ctrls.numWrRetry                         0                       # Number of times write queue was full causing retry
system.mem_ctrls.readRowHits                      447                       # Number of row buffer hits during reads
system.mem_ctrls.writeRowHits                      28                       # Number of row buffer hits during writes
system.mem_ctrls.readRowHitRate                 78.70                       # Row buffer hit rate for reads
system.mem_ctrls.writeRowHitRate                47.46                       # Row buffer hit rate for writes
system.mem_ctrls.readPktSize::0                     0                       # Read request sizes (log2)
system.mem_ctrls.readPktSize::1                     0                       # Read request sizes (log2)
system.mem_ctrls.readPktSize::2                     0                       # Read request sizes (log2)
system.mem_ctrls.readPktSize::3                     0                       # Read request sizes (log2)
system.mem_ctrls.readPktSize::4                     0                       # Read request sizes (log2)
system.mem_ctrls.readPktSize::5                     0                       # Read request sizes (log2)
system.mem_ctrls.readPktSize::6                   568                       # Read request sizes (log2)
system.mem_ctrls.writePktSize::0                    0                       # Write request sizes (log2)
system.mem_ctrls.writePktSize::1                    0                       # Write request sizes (log2)
system.mem_ctrls.writePktSize::2                    0                       # Write request sizes (log2)
system.mem_ctrls.writePktSize::3                    0                       # Write request sizes (log2)
system.mem_ctrls.writePktSize::4                    0                       # Write request sizes (log2)
system.mem_ctrls.writePktSize::5                    0                       # Write request sizes (log2)
system.mem_ctrls.writePktSize::6                   59                       # Write request sizes (log2)
system.mem_ctrls.rdQLenPdf::0                     311                       # What read queue length does an incoming req see
system.mem_ctrls.rdQLenPdf::1                     178                       # What read queue length does an incoming req see
system.mem_ctrls.rdQLenPdf::2                      56                       # What read queue length does an incoming req see
system.mem_ctrls.rdQLenPdf::3                      15                       # What read queue length does an incoming req see
system.mem_ctrls.rdQLenPdf::4                       7                       # What read queue length does an incoming req see
system.mem_ctrls.rdQLenPdf::5                       1                       # What read queue length does an incoming req see
system.mem_ctrls.rdQLenPdf::6                       0                       # What read queue length does an incoming req see
system.mem_ctrls.rdQLenPdf::7                       0                       # What read queue length does an incoming req see
system.mem_ctrls.rdQLenPdf::8                       0                       # What read queue length does an incoming req see
system.mem_ctrls.rdQLenPdf::9                       0                       # What read queue length does an incoming req see
system.mem_ctrls.rdQLenPdf::10                      0                       # What read queue length does an incoming req see
system.mem_ctrls.rdQLenPdf::11                      0                       # What read queue length does an incoming req see
system.mem_ctrls.rdQLenPdf::12                      0                       # What read queue length does an incoming req see
system.mem_ctrls.rdQLenPdf::13                      0                       # What read queue length does an incoming req see
system.mem_ctrls.rdQLenPdf::14                      0                       # What read queue length does an incoming req see
system.mem_ctrls.rdQLenPdf::15                      0                       # What read queue length does an incoming req see
system.mem_ctrls.rdQLenPdf::16                      0                       # What read queue length does an incoming req see
system.mem_ctrls.rdQLenPdf::17                      0                       # What read queue length does an incoming req see
system.mem_ctrls.rdQLenPdf::18                      0                       # What read queue length does an incoming req see
system.mem_ctrls.rdQLenPdf::19                      0                       # What read queue length does an incoming req see
system.mem_ctrls.rdQLenPdf::20                      0                       # What read queue length does an incoming req see
system.mem_ctrls.rdQLenPdf::21                      0                       # What read queue length does an incoming req see
system.mem_ctrls.rdQLenPdf::22                      0                       # What read queue length does an incoming req see
system.mem_ctrls.rdQLenPdf::23                      0                       # What read queue length does an incoming req see
system.mem_ctrls.rdQLenPdf::24                      0                       # What read queue length does an incoming req see
system.mem_ctrls.rdQLenPdf::25                      0                       # What read queue length does an incoming req see
system.mem_ctrls.rdQLenPdf::26                      0                       # What read queue length does an incoming req see
system.mem_ctrls.rdQLenPdf::27                      0                       # What read queue length does an incoming req see
system.mem_ctrls.rdQLenPdf::28                      0                       # What read queue length does an incoming req see
system.mem_ctrls.rdQLenPdf::29                      0                       # What read queue length does an incoming req see
system.mem_ctrls.rdQLenPdf::30                      0                       # What read queue length does an incoming req see
system.mem_ctrls.rdQLenPdf::31                      0                       # What read queue length does an incoming req see
system.mem_ctrls.wrQLenPdf::0                       1                       # What write queue length does an incoming req see
system.mem_ctrls.wrQLenPdf::1                       1                       # What write queue length does an incoming req see
system.mem_ctrls.wrQLenPdf::2                       1                       # What write queue length does an incoming req see
system.mem_ctrls.wrQLenPdf::3                       1                       # What write queue length does an incoming req see
system.mem_ctrls.wrQLenPdf::4                       1                       # What write queue length does an incoming req see
system.mem_ctrls.wrQLenPdf::5                       1                       # What write queue length does an incoming req see
system.mem_ctrls.wrQLenPdf::6                       1                       # What write queue length does an incoming req see
system.mem_ctrls.wrQLenPdf::7                       1                       # What write queue length does an incoming req see
system.mem_ctrls.wrQLenPdf::8                       1                       # What write queue length does an incoming req see
system.mem_ctrls.wrQLenPdf::9                       1                       # What write queue length does an incoming req see
system.mem_ctrls.wrQLenPdf::10                      1                       # What write queue length does an incoming req see
system.mem_ctrls.wrQLenPdf::11                      1                       # What write queue length does an incoming req see
system.mem_ctrls.wrQLenPdf::12                      1                       # What write queue length does an incoming req see
system.mem_ctrls.wrQLenPdf::13                      1                       # What write queue length does an incoming req see
system.mem_ctrls.wrQLenPdf::14                      1                       # What write queue length does an incoming req see
system.mem_ctrls.wrQLenPdf::15                      1                       # What write queue length does an incoming req see
system.mem_ctrls.wrQLenPdf::16                      1                       # What write queue length does an incoming req see
system.mem_ctrls.wrQLenPdf::17                      3                       # What write queue length does an incoming req see
system.mem_ctrls.wrQLenPdf::18                      3                       # What write queue length does an incoming req see
system.mem_ctrls.wrQLenPdf::19                      3                       # What write queue length does an incoming req see
system.mem_ctrls.wrQLenPdf::20                      3                       # What write queue length does an incoming req see
system.mem_ctrls.wrQLenPdf::21                      3                       # What write queue length does an incoming req see
system.mem_ctrls.wrQLenPdf::22                      3                       # What write queue length does an incoming req see
system.mem_ctrls.wrQLenPdf::23                      3                       # What write queue length does an incoming req see
system.mem_ctrls.wrQLenPdf::24                      3                       # What write queue length does an incoming req see
system.mem_ctrls.wrQLenPdf::25                      3                       # What write queue length does an incoming req see
system.mem_ctrls.wrQLenPdf::26                      3                       # What write queue length does an incoming req see
system.mem_ctrls.wrQLenPdf::27                      2                       # What write queue length does an incoming req see
system.mem_ctrls.wrQLenPdf::28                      2                       # What write queue length does an incoming req see
system.mem_ctrls.wrQLenPdf::29                      2                       # What write queue length does an incoming req see
system.mem_ctrls.wrQLenPdf::30                      2                       # What write queue length does an incoming req see
system.mem_ctrls.wrQLenPdf::31                      2                       # What write queue length does an incoming req see
system.mem_ctrls.wrQLenPdf::32                      2                       # What write queue length does an incoming req see
system.mem_ctrls.wrQLenPdf::33                      0                       # What write queue length does an incoming req see
system.mem_ctrls.wrQLenPdf::34                      0                       # What write queue length does an incoming req see
system.mem_ctrls.wrQLenPdf::35                      0                       # What write queue length does an incoming req see
system.mem_ctrls.wrQLenPdf::36                      0                       # What write queue length does an incoming req see
system.mem_ctrls.wrQLenPdf::37                      0                       # What write queue length does an incoming req see
system.mem_ctrls.wrQLenPdf::38                      0                       # What write queue length does an incoming req see
system.mem_ctrls.wrQLenPdf::39                      0                       # What write queue length does an incoming req see
system.mem_ctrls.wrQLenPdf::40                      0                       # What write queue length does an incoming req see
system.mem_ctrls.wrQLenPdf::41                      0                       # What write queue length does an incoming req see
system.mem_ctrls.wrQLenPdf::42                      0                       # What write queue length does an incoming req see
system.mem_ctrls.wrQLenPdf::43                      0                       # What write queue length does an incoming req see
system.mem_ctrls.wrQLenPdf::44                      0                       # What write queue length does an incoming req see
system.mem_ctrls.wrQLenPdf::45                      0                       # What write queue length does an incoming req see
system.mem_ctrls.wrQLenPdf::46                      0                       # What write queue length does an incoming req see
system.mem_ctrls.wrQLenPdf::47                      0                       # What write queue length does an incoming req see
system.mem_ctrls.wrQLenPdf::48                      0                       # What write queue length does an incoming req see
system.mem_ctrls.wrQLenPdf::49                      0                       # What write queue length does an incoming req see
system.mem_ctrls.wrQLenPdf::50                      0                       # What write queue length does an incoming req see
system.mem_ctrls.wrQLenPdf::51                      0                       # What write queue length does an incoming req see
system.mem_ctrls.wrQLenPdf::52                      0                       # What write queue length does an incoming req see
system.mem_ctrls.wrQLenPdf::53                      0                       # What write queue length does an incoming req see
system.mem_ctrls.wrQLenPdf::54                      0                       # What write queue length does an incoming req see
system.mem_ctrls.wrQLenPdf::55                      0                       # What write queue length does an incoming req see
system.mem_ctrls.wrQLenPdf::56                      0                       # What write queue length does an incoming req see
system.mem_ctrls.wrQLenPdf::57                      0                       # What write queue length does an incoming req see
system.mem_ctrls.wrQLenPdf::58                      0                       # What write queue length does an incoming req see
system.mem_ctrls.wrQLenPdf::59                      0                       # What write queue length does an incoming req see
system.mem_ctrls.wrQLenPdf::60                      0                       # What write queue length does an incoming req see
system.mem_ctrls.wrQLenPdf::61                      0                       # What write queue length does an incoming req see
system.mem_ctrls.wrQLenPdf::62                      0                       # What write queue length does an incoming req see
system.mem_ctrls.wrQLenPdf::63                      0                       # What write queue length does an incoming req see
system.mem_ctrls.bytesPerActivate::samples          112                       # Bytes accessed per row activation
system.mem_ctrls.bytesPerActivate::mean    325.142857                       # Bytes accessed per row activation
system.mem_ctrls.bytesPerActivate::gmean   191.321721                       # Bytes accessed per row activation
system.mem_ctrls.bytesPerActivate::stdev   334.505224                       # Bytes accessed per row activation
system.mem_ctrls.bytesPerActivate::0-127           41     36.61%     36.61% # Bytes accessed per row activation
system.mem_ctrls.bytesPerActivate::128-255           25     22.32%     58.93% # Bytes accessed per row activation
system.mem_ctrls.bytesPerActivate::256-383            9      8.04%     66.96% # Bytes accessed per row activation
system.mem_ctrls.bytesPerActivate::384-511            7      6.25%     73.21% # Bytes accessed per row activation
system.mem_ctrls.bytesPerActivate::512-639           10      8.93%     82.14% # Bytes accessed per row activation
system.mem_ctrls.bytesPerActivate::640-767            1      0.89%     83.04% # Bytes accessed per row activation
system.mem_ctrls.bytesPerActivate::768-895            3      2.68%     85.71% # Bytes accessed per row activation
system.mem_ctrls.bytesPerActivate::896-1023            4      3.57%     89.29% # Bytes accessed per row activation
system.mem_ctrls.bytesPerActivate::1024-1151           12     10.71%    100.00% # Bytes accessed per row activation
system.mem_ctrls.bytesPerActivate::total          112                       # Bytes accessed per row activation
system.mem_ctrls.rdPerTurnAround::samples            2                       # Reads before turning the bus around for writes
system.mem_ctrls.rdPerTurnAround::mean            273                       # Reads before turning the bus around for writes
system.mem_ctrls.rdPerTurnAround::gmean    176.819117                       # Reads before turning the bus around for writes
system.mem_ctrls.rdPerTurnAround::stdev    294.156421                       # Reads before turning the bus around for writes
system.mem_ctrls.rdPerTurnAround::64-79             1     50.00%     50.00% # Reads before turning the bus around for writes
system.mem_ctrls.rdPerTurnAround::480-495            1     50.00%    100.00% # Reads before turning the bus around for writes
system.mem_ctrls.rdPerTurnAround::total             2                       # Reads before turning the bus around for writes
system.mem_ctrls.wrPerTurnAround::samples            2                       # Writes before turning the bus around for reads
system.mem_ctrls.wrPerTurnAround::mean             16                       # Writes before turning the bus around for reads
system.mem_ctrls.wrPerTurnAround::gmean     16.000000                       # Writes before turning the bus around for reads
system.mem_ctrls.wrPerTurnAround::16                2    100.00%    100.00% # Writes before turning the bus around for reads
system.mem_ctrls.wrPerTurnAround::total             2                       # Writes before turning the bus around for reads
system.mem_ctrls.bytesReadDRAM                  36352                       # Total number of bytes read from DRAM
system.mem_ctrls.bytesReadWrQ                       0                       # Total number of bytes read from write queue
system.mem_ctrls.bytesWritten                    2048                       # Total number of bytes written to DRAM
system.mem_ctrls.bytesReadSys                   36352                       # Total read bytes from the system interface side
system.mem_ctrls.bytesWrittenSys                 3776                       # Total written bytes from the system interface side
system.mem_ctrls.avgRdBW                      1710.72                       # Average DRAM read bandwidth in MiByte/s
system.mem_ctrls.avgWrBW                        96.38                       # Average achieved write bandwidth in MiByte/s
system.mem_ctrls.avgRdBWSys                   1710.72                       # Average system read bandwidth in MiByte/s
system.mem_ctrls.avgWrBWSys                    177.70                       # Average system write bandwidth in MiByte/s
system.mem_ctrls.peakBW                      12800.00                       # Theoretical peak bandwidth in MiByte/s
system.mem_ctrls.busUtil                        14.12                       # Data bus utilization in percentage
system.mem_ctrls.busUtilRead                    13.37                       # Data bus utilization in percentage for reads
system.mem_ctrls.busUtilWrite                    0.75                       # Data bus utilization in percentage for writes
system.mem_ctrls.totGap                      21245000                       # Total gap between requests
system.mem_ctrls.avgGap                      33883.57                       # Average gap between requests
system.mem_ctrls.masterReadBytes::.cpu.inst        23744                       # Per-master bytes read from memory
system.mem_ctrls.masterReadBytes::.cpu.data        12608                       # Per-master bytes read from memory
system.mem_ctrls.masterWriteBytes::.writebacks         2048                       # Per-master bytes write to memory
system.mem_ctrls.masterReadRate::.cpu.inst 1117390997.435233831406                       # Per-master bytes read from memory rate (Bytes/sec)
system.mem_ctrls.masterReadRate::.cpu.data 593331607.802536487579                       # Per-master bytes read from memory rate (Bytes/sec)
system.mem_ctrls.masterWriteRate::.writebacks 96378738.323254659772                       # Per-master bytes write to memory rate (Bytes/sec)
system.mem_ctrls.masterReadAccesses::.cpu.inst          371                       # Per-master read serviced memory accesses
system.mem_ctrls.masterReadAccesses::.cpu.data          197                       # Per-master read serviced memory accesses
system.mem_ctrls.masterWriteAccesses::.writebacks           59                       # Per-master write serviced memory accesses
system.mem_ctrls.masterReadTotalLat::.cpu.inst      9899250                       # Per-master read total memory access latency
system.mem_ctrls.masterReadTotalLat::.cpu.data      5886500                       # Per-master read total memory access latency
system.mem_ctrls.masterWriteTotalLat::.writebacks    133195000                       # Per-master write total memory access latency
system.mem_ctrls.masterReadAvgLat::.cpu.inst     26682.61                       # Per-master read average memory access latency
system.mem_ctrls.masterReadAvgLat::.cpu.data     29880.71                       # Per-master read average memory access latency
system.mem_ctrls.masterWriteAvgLat::.writebacks   2257542.37                       # Per-master write average memory access latency
system.mem_ctrls.pageHitRate                    75.76                       # Row buffer hit rate, read and write combined
system.mem_ctrls.rank1.actEnergy               592620                       # Energy for activate commands per rank (pJ)
system.mem_ctrls.rank1.preEnergy               288420                       # Energy for precharge commands per rank (pJ)
system.mem_ctrls.rank1.readEnergy             2241960                       # Energy for read commands per rank (pJ)
system.mem_ctrls.rank1.writeEnergy                  0                       # Energy for write commands per rank (pJ)
[...]
system.cpu.icache.overall_avg_mshr_miss_latency::total 57991.228070                       # average overall mshr miss latency
system.cpu.icache.replacements                     22                       # number of replacements
system.cpu.icache.ReadReq_hits::.cpu.inst          182                       # number of ReadReq hits
system.cpu.icache.ReadReq_hits::total             182                       # number of ReadReq hits
system.cpu.icache.ReadReq_misses::.cpu.inst           97                       # number of ReadReq misses
system.cpu.icache.ReadReq_misses::total            97                       # number of ReadReq misses
system.cpu.icache.ReadReq_miss_latency::.cpu.inst      5160000                       # number of ReadReq miss cycles
system.cpu.icache.ReadReq_miss_latency::total      5160000                       # number of ReadReq miss cycles
system.cpu.icache.ReadReq_accesses::.cpu.inst          279                       # number of ReadReq accesses(hits+misses)
system.cpu.icache.ReadReq_accesses::total          279                       # number of ReadReq accesses(hits+misses)
system.cpu.icache.ReadReq_miss_rate::.cpu.inst     0.347670                       # miss rate for ReadReq accesses
system.cpu.icache.ReadReq_miss_rate::total     0.347670                       # miss rate for ReadReq accesses
system.cpu.icache.ReadReq_avg_miss_latency::.cpu.inst 53195.876289                       # average ReadReq miss latency
system.cpu.icache.ReadReq_avg_miss_latency::total 53195.876289                       # average ReadReq miss latency
system.cpu.icache.ReadReq_mshr_hits::.cpu.inst           40                       # number of ReadReq MSHR hits
system.cpu.icache.ReadReq_mshr_hits::total           40                       # number of ReadReq MSHR hits
system.cpu.icache.ReadReq_mshr_misses::.cpu.inst           57                       # number of ReadReq MSHR misses
system.cpu.icache.ReadReq_mshr_misses::total           57                       # number of ReadReq MSHR misses
system.cpu.icache.ReadReq_mshr_miss_latency::.cpu.inst      3305500                       # number of ReadReq MSHR miss cycles
system.cpu.icache.ReadReq_mshr_miss_latency::total      3305500                       # number of ReadReq MSHR miss cycles
system.cpu.icache.ReadReq_mshr_miss_rate::.cpu.inst     0.204301                       # mshr miss rate for ReadReq accesses
system.cpu.icache.ReadReq_mshr_miss_rate::total     0.204301                       # mshr miss rate for ReadReq accesses
system.cpu.icache.ReadReq_avg_mshr_miss_latency::.cpu.inst 57991.228070                       # average ReadReq mshr miss latency
system.cpu.icache.ReadReq_avg_mshr_miss_latency::total 57991.228070                       # average ReadReq mshr miss latency
system.cpu.icache.tags.pwrStateResidencyTicks::UNDEFINED      2672000                       # Cumulative time (in ticks) in various power states
system.cpu.icache.tags.tagsinuse           386.711458                       # Cycle average of tags in use
system.cpu.icache.tags.total_refs                1833                       # Total number of references to valid blocks.
system.cpu.icache.tags.sampled_refs               425                       # Sample count of references to valid blocks.
system.cpu.icache.tags.avg_refs              4.312941                       # Average number of references to valid blocks.
system.cpu.icache.tags.warmup_cycle                 0                       # Cycle when the warmup percentage was hit.
system.cpu.icache.tags.occ_blocks::.cpu.inst   386.711458                       # Average occupied blocks per requestor
system.cpu.icache.tags.occ_percent::.cpu.inst     0.755296                       # Average percentage of cache occupancy
system.cpu.icache.tags.occ_percent::total     0.755296                       # Average percentage of cache occupancy
system.cpu.icache.tags.occ_task_id_blocks::1024          403                       # Occupied blocks per task id
system.cpu.icache.tags.age_task_id_blocks_1024::0          201                       # Occupied blocks per task id
system.cpu.icache.tags.age_task_id_blocks_1024::1          202                       # Occupied blocks per task id
system.cpu.icache.tags.occ_task_id_percent::1024     0.787109                       # Percentage of cache occupancy per task id
system.cpu.icache.tags.tag_accesses               615                       # Number of tag accesses
system.cpu.icache.tags.data_accesses              615                       # Number of data accesses
system.cpu.dtb.walker.pwrStateResidencyTicks::UNDEFINED      2672000                       # Cumulative time (in ticks) in various power states
system.cpu.interrupts.clk_domain.clock           8000                       # Clock period in ticks
system.cpu.itb_walker_cache.pwrStateResidencyTicks::UNDEFINED      2672000                       # Cumulative time (in ticks) in various power states
system.cpu.itb_walker_cache.blocked_cycles::no_mshrs            0                       # number of cycles access was blocked
system.cpu.itb_walker_cache.blocked_cycles::no_targets            0                       # number of cycles access was blocked
system.cpu.itb_walker_cache.blocked::no_mshrs            0                       # number of cycles access was blocked
system.cpu.itb_walker_cache.blocked::no_targets            0                       # number of cycles access was blocked
system.cpu.itb_walker_cache.avg_blocked_cycles::no_mshrs          nan                       # average number of cycles each access was blocked
system.cpu.itb_walker_cache.avg_blocked_cycles::no_targets          nan                       # average number of cycles each access was blocked
system.cpu.itb_walker_cache.replacements            0                       # number of replacements
system.cpu.itb_walker_cache.tags.pwrStateResidencyTicks::UNDEFINED      2672000                       # Cumulative time (in ticks) in various power states
system.cpu.itb_walker_cache.tags.tagsinuse            0                       # Cycle average of tags in use
system.cpu.itb_walker_cache.tags.total_refs            0                       # Total number of references to valid blocks.
system.cpu.itb_walker_cache.tags.sampled_refs            0                       # Sample count of references to valid blocks.
system.cpu.itb_walker_cache.tags.avg_refs          nan                       # Average number of references to valid blocks.
system.cpu.itb_walker_cache.tags.warmup_cycle            0                       # Cycle when the warmup percentage was hit.
system.cpu.itb_walker_cache.tags.tag_accesses            0                       # Number of tag accesses
system.cpu.itb_walker_cache.tags.data_accesses            0                       # Number of data accesses
system.cpu.itb.walker.pwrStateResidencyTicks::UNDEFINED      2672000                       # Cumulative time (in ticks) in various power states
system.cpu.dtb_walker_cache.pwrStateResidencyTicks::UNDEFINED      2672000                       # Cumulative time (in ticks) in various power states
system.cpu.dtb_walker_cache.blocked_cycles::no_mshrs            0                       # number of cycles access was blocked
system.cpu.dtb_walker_cache.blocked_cycles::no_targets            0                       # number of cycles access was blocked
system.cpu.dtb_walker_cache.blocked::no_mshrs            0                       # number of cycles access was blocked
system.cpu.dtb_walker_cache.blocked::no_targets            0                       # number of cycles access was blocked
system.cpu.dtb_walker_cache.avg_blocked_cycles::no_mshrs          nan                       # average number of cycles each access was blocked
system.cpu.dtb_walker_cache.avg_blocked_cycles::no_targets          nan                       # average number of cycles each access was blocked
system.cpu.dtb_walker_cache.replacements            0                       # number of replacements
system.cpu.dtb_walker_cache.tags.pwrStateResidencyTicks::UNDEFINED      2672000                       # Cumulative time (in ticks) in various power states
system.cpu.dtb_walker_cache.tags.tagsinuse            0                       # Cycle average of tags in use
system.cpu.dtb_walker_cache.tags.total_refs            0                       # Total number of references to valid blocks.
system.cpu.dtb_walker_cache.tags.sampled_refs            0                       # Sample count of references to valid blocks.
system.cpu.dtb_walker_cache.tags.avg_refs          nan                       # Average number of references to valid blocks.
system.cpu.dtb_walker_cache.tags.warmup_cycle            0                       # Cycle when the warmup percentage was hit.
system.cpu.dtb_walker_cache.tags.tag_accesses            0                       # Number of tag accesses
system.cpu.dtb_walker_cache.tags.data_accesses            0                       # Number of data accesses
system.cpu.dcache.pwrStateResidencyTicks::UNDEFINED      2672000                       # Cumulative time (in ticks) in various power states
system.cpu.dcache.demand_hits::.cpu.data          269                       # number of demand (read+write) hits
system.cpu.dcache.demand_hits::total              269                       # number of demand (read+write) hits
system.cpu.dcache.overall_hits::.cpu.data          269                       # number of overall hits
system.cpu.dcache.overall_hits::total             269                       # number of overall hits
system.cpu.dcache.demand_misses::.cpu.data           16                       # number of demand (read+write) misses
system.cpu.dcache.demand_misses::total             16                       # number of demand (read+write) misses
system.cpu.dcache.overall_misses::.cpu.data           16                       # number of overall misses
system.cpu.dcache.overall_misses::total            16                       # number of overall misses
system.cpu.dcache.demand_miss_latency::.cpu.data      1022000                       # number of demand (read+write) miss cycles
system.cpu.dcache.demand_miss_latency::total      1022000                       # number of demand (read+write) miss cycles
system.cpu.dcache.overall_miss_latency::.cpu.data      1022000                       # number of overall miss cycles
system.cpu.dcache.overall_miss_latency::total      1022000                       # number of overall miss cycles
system.cpu.dcache.demand_accesses::.cpu.data          285                       # number of demand (read+write) accesses
system.cpu.dcache.demand_accesses::total          285                       # number of demand (read+write) accesses
system.cpu.dcache.overall_accesses::.cpu.data          285                       # number of overall (read+write) accesses
system.cpu.dcache.overall_accesses::total          285                       # number of overall (read+write) accesses
system.cpu.dcache.demand_miss_rate::.cpu.data     0.056140                       # miss rate for demand accesses
system.cpu.dcache.demand_miss_rate::total     0.056140                       # miss rate for demand accesses
system.cpu.dcache.overall_miss_rate::.cpu.data     0.056140                       # miss rate for overall accesses
system.cpu.dcache.overall_miss_rate::total     0.056140                       # miss rate for overall accesses
system.cpu.dcache.demand_avg_miss_latency::.cpu.data        63875                       # average overall miss latency
system.cpu.dcache.demand_avg_miss_latency::total        63875                       # average overall miss latency
system.cpu.dcache.overall_avg_miss_latency::.cpu.data        63875                       # average overall miss latency
system.cpu.dcache.overall_avg_miss_latency::total        63875                       # average overall miss latency
system.cpu.dcache.blocked_cycles::no_mshrs            0                       # number of cycles access was blocked
system.cpu.dcache.blocked_cycles::no_targets            0                       # number of cycles access was blocked
system.cpu.dcache.blocked::no_mshrs                 0                       # number of cycles access was blocked
system.cpu.dcache.blocked::no_targets               0                       # number of cycles access was blocked
system.cpu.dcache.avg_blocked_cycles::no_mshrs          nan                       # average number of cycles each access was blocked
system.cpu.dcache.avg_blocked_cycles::no_targets          nan                       # average number of cycles each access was blocked
system.cpu.dcache.demand_mshr_hits::.cpu.data            3                       # number of demand (read+write) MSHR hits
system.cpu.dcache.demand_mshr_hits::total            3                       # number of demand (read+write) MSHR hits
system.cpu.dcache.overall_mshr_hits::.cpu.data            3                       # number of overall MSHR hits
system.cpu.dcache.overall_mshr_hits::total            3                       # number of overall MSHR hits
system.cpu.dcache.demand_mshr_misses::.cpu.data           13                       # number of demand (read+write) MSHR misses
system.cpu.dcache.demand_mshr_misses::total           13                       # number of demand (read+write) MSHR misses
system.cpu.dcache.overall_mshr_misses::.cpu.data           13                       # number of overall MSHR misses
system.cpu.dcache.overall_mshr_misses::total           13                       # number of overall MSHR misses
system.cpu.dcache.demand_mshr_miss_latency::.cpu.data       815000                       # number of demand (read+write) MSHR miss cycles
system.cpu.dcache.demand_mshr_miss_latency::total       815000                       # number of demand (read+write) MSHR miss cycles
system.cpu.dcache.overall_mshr_miss_latency::.cpu.data       815000                       # number of overall MSHR miss cycles
system.cpu.dcache.overall_mshr_miss_latency::total       815000                       # number of overall MSHR miss cycles
system.cpu.dcache.demand_mshr_miss_rate::.cpu.data     0.045614                       # mshr miss rate for demand accesses
system.cpu.dcache.demand_mshr_miss_rate::total     0.045614                       # mshr miss rate for demand accesses
system.cpu.dcache.overall_mshr_miss_rate::.cpu.data     0.045614                       # mshr miss rate for overall accesses
system.cpu.dcache.overall_mshr_miss_rate::total     0.045614                       # mshr miss rate for overall accesses
system.cpu.dcache.demand_avg_mshr_miss_latency::.cpu.data 62692.307692                       # average overall mshr miss latency
system.cpu.dcache.demand_avg_mshr_miss_latency::total 62692.307692                       # average overall mshr miss latency
system.cpu.dcache.overall_avg_mshr_miss_latency::.cpu.data 62692.307692                       # average overall mshr miss latency
system.cpu.dcache.overall_avg_mshr_miss_latency::total 62692.307692                       # average overall mshr miss latency
system.cpu.dcache.replacements                      0                       # number of replacements
system.cpu.dcache.ReadReq_hits::.cpu.data          166                       # number of ReadReq hits
system.cpu.dcache.ReadReq_hits::total             166                       # number of ReadReq hits
system.cpu.dcache.ReadReq_misses::.cpu.data           16                       # number of ReadReq misses
system.cpu.dcache.ReadReq_misses::total            16                       # number of ReadReq misses
system.cpu.dcache.ReadReq_miss_latency::.cpu.data      1022000                       # number of ReadReq miss cycles
system.cpu.dcache.ReadReq_miss_latency::total      1022000                       # number of ReadReq miss cycles
system.cpu.dcache.ReadReq_accesses::.cpu.data          182                       # number of ReadReq accesses(hits+misses)
system.cpu.dcache.ReadReq_accesses::total          182                       # number of ReadReq accesses(hits+misses)
system.cpu.dcache.ReadReq_miss_rate::.cpu.data     0.087912                       # miss rate for ReadReq accesses
system.cpu.dcache.ReadReq_miss_rate::total     0.087912                       # miss rate for ReadReq accesses
system.cpu.dcache.ReadReq_avg_miss_latency::.cpu.data        63875                       # average ReadReq miss latency
system.cpu.dcache.ReadReq_avg_miss_latency::total        63875                       # average ReadReq miss latency
system.cpu.dcache.ReadReq_mshr_hits::.cpu.data            3                       # number of ReadReq MSHR hits
system.cpu.dcache.ReadReq_mshr_hits::total            3                       # number of ReadReq MSHR hits
system.cpu.dcache.ReadReq_mshr_misses::.cpu.data           13                       # number of ReadReq MSHR misses
system.cpu.dcache.ReadReq_mshr_misses::total           13                       # number of ReadReq MSHR misses
system.cpu.dcache.ReadReq_mshr_miss_latency::.cpu.data       815000                       # number of ReadReq MSHR miss cycles
system.cpu.dcache.ReadReq_mshr_miss_latency::total       815000                       # number of ReadReq MSHR miss cycles
system.cpu.dcache.ReadReq_mshr_miss_rate::.cpu.data     0.071429                       # mshr miss rate for ReadReq accesses
system.cpu.dcache.ReadReq_mshr_miss_rate::total     0.071429                       # mshr miss rate for ReadReq accesses
system.cpu.dcache.ReadReq_avg_mshr_miss_latency::.cpu.data 62692.307692                       # average ReadReq mshr miss latency
system.cpu.dcache.ReadReq_avg_mshr_miss_latency::total 62692.307692                       # average ReadReq mshr miss latency
system.cpu.dcache.WriteReq_hits::.cpu.data          103                       # number of WriteReq hits
system.cpu.dcache.WriteReq_hits::total            103                       # number of WriteReq hits
system.cpu.dcache.WriteReq_accesses::.cpu.data          103                       # number of WriteReq accesses(hits+misses)
system.cpu.dcache.WriteReq_accesses::total          103                       # number of WriteReq accesses(hits+misses)
system.cpu.dcache.tags.pwrStateResidencyTicks::UNDEFINED      2672000                       # Cumulative time (in ticks) in various power states
system.cpu.dcache.tags.tagsinuse           234.494763                       # Cycle average of tags in use
system.cpu.dcache.tags.total_refs                3787                       # Total number of references to valid blocks.
system.cpu.dcache.tags.sampled_refs               241                       # Sample count of references to valid blocks.
system.cpu.dcache.tags.avg_refs             15.713693                       # Average number of references to valid blocks.
system.cpu.dcache.tags.warmup_cycle                 0                       # Cycle when the warmup percentage was hit.
system.cpu.dcache.tags.occ_blocks::.cpu.data   234.494763                       # Average occupied blocks per requestor
system.cpu.dcache.tags.occ_percent::.cpu.data     0.228999                       # Average percentage of cache occupancy
system.cpu.dcache.tags.occ_percent::total     0.228999                       # Average percentage of cache occupancy
system.cpu.dcache.tags.occ_task_id_blocks::1024          241                       # Occupied blocks per task id
system.cpu.dcache.tags.age_task_id_blocks_1024::0           50                       # Occupied blocks per task id
system.cpu.dcache.tags.age_task_id_blocks_1024::1          191                       # Occupied blocks per task id
system.cpu.dcache.tags.occ_task_id_percent::1024     0.235352                       # Percentage of cache occupancy per task id
system.cpu.dcache.tags.tag_accesses               583                       # Number of tag accesses
system.cpu.dcache.tags.data_accesses              583                       # Number of data accesses

---------- End Simulation Statistics   ----------
