gem5 Simulator System.  http://gem5.org
gem5 is copyrighted software; use the --copyright option for details.

gem5 compiled Feb 28 2020 17:14:42
gem5 started Mar  4 2020 09:56:36
gem5 executing on tarun-s, pid 19656
command line: build/X86/gem5.opt configs/example/se.py --cmd=./tests/my_progs/spectre_test_2.o --cpu-type=DerivO3CPU --caches

Global frequency set at 1000000000000 ticks per second
**** REAL SIMULATION ****

Address of i = 0x7fffffffed10 

Address of j = 0x7fffffffed14 

Address of x = 0x6bc3a0 

Address of y = 0x6bc424 

Address of array1 = 0x6bc440 

Address of array2 = 0x6bc3c0 

Address of array3 = 0x6bc5e0 
HERE 1 : enable_memreq_tracing = 1
-- ISN: (81123) : S -> 0x(0) at (0x7fffffffed10) -- Size = (4) 

-- ISN: (81127) : L from (0x7fffffffed10) -- of Size = (4) 

-- ISN: (81128) : L from (0x7fffffffed10) -- of Size = (4) 

-- ISN: (81134) : L from (0x7fffffffed10) -- of Size = (4) 

-- Sqsh -> ISN (81126)

-- ISN: (81165) : L from (0x7fffffffed10) -- of Size = (4) 

-- ISN: (81172) : S -> 0x(0) at (0x7fffffffed14) -- Size = (4) 

-- ISN: (81176) : L from (0x7fffffffed14) -- of Size = (4) 

-- ISN: (81180) : S -> 0x(bd) at (0x7fffffffed08) -- Size = (8) 

-- ISN: (81183) : L from (0x7fffffffed14) -- of Size = (4) 

-- ISN: (81187) : L from (0x7fffffffed14) -- of Size = (4) 

-- Sqsh -> ISN (81175)

-- Sqsh -> ISN (81170)

-- ISN: (81220) : L from (0x7fffffffed10) -- of Size = (4) 

-- ISN: (81221) : L from (0x7fffffffed10) -- of Size = (4) 

-- ISN: (81227) : L from (0x7fffffffed10) -- of Size = (4) 

-- ISN: (81231) : L from (0x7fffffffed10) -- of Size = (4) 

-- ISN: (81242) : L from (0x7fffffffed14) -- of Size = (4) 

-- ISN: (81238) : S -> 0x(0) at (0x7fffffffed14) -- Size = (4) 

-- ISN: (81249) : L from (0x7fffffffed14) -- of Size = (4) 

-- ISN: (81246) : S -> 0x(bd) at (0x7fffffffed08) -- Size = (8) 

-- ISN: (81253) : L from (0x7fffffffed14) -- of Size = (4) 

-- Sqsh -> ISN (81241)

-- ISN: (81226) : S -> 0x(0) at (0x6bc440) -- Size = (4) 

-- ISN: (81230) : S -> 0x(1) at (0x7fffffffed10) -- Size = (4) 

-- Sqsh -> ISN (81230)

-- ISN: (81286) : L from (0x7fffffffed10) -- of Size = (4) 

-- ISN: (81293) : S -> 0x(0) at (0x7fffffffed14) -- Size = (4) 

-- ISN: (81297) : L from (0x7fffffffed14) -- of Size = (4) 

-- ISN: (81306) : S -> 0x(d8) at (0x7fffffffed08) -- Size = (8) 

-- ISN: (81314) : L from (0x7fffffffed10) -- of Size = (4) 

-- Sqsh -> ISN (81291)

-- ISN: (81330) : L from (0x7fffffffed10) -- of Size = (4) 

-- ISN: (81331) : L from (0x7fffffffed10) -- of Size = (4) 

-- ISN: (81337) : L from (0x7fffffffed10) -- of Size = (4) 

-- ISN: (81340) : S -> 0x(2) at (0x7fffffffed10) -- Size = (4) 

-- ISN: (81348) : S -> 0x(0) at (0x7fffffffed14) -- Size = (4) 

-- ISN: (81336) : S -> 0x(1) at (0x6bc444) -- Size = (4) 

-- ISN: (81341) : L from (0x7fffffffed10) -- of Size = (4) 

-- ISN: (81352) : L from (0x7fffffffed14) -- of Size = (4) 

-- ISN: (81356) : S -> 0x(bd) at (0x7fffffffed08) -- Size = (8) 

-- Sqsh -> ISN (81351)

-- Sqsh -> ISN (81346)

-- ISN: (81404) : L from (0x7fffffffed10) -- of Size = (4) 

-- ISN: (81405) : L from (0x7fffffffed10) -- of Size = (4) 

-- ISN: (81411) : L from (0x7fffffffed10) -- of Size = (4) 

-- ISN: (81426) : L from (0x7fffffffed14) -- of Size = (4) 

-- ISN: (81414) : S -> 0x(3) at (0x7fffffffed10) -- Size = (4) 

-- ISN: (81422) : S -> 0x(0) at (0x7fffffffed14) -- Size = (4) 

-- ISN: (81410) : S -> 0x(2) at (0x6bc448) -- Size = (4) 

-- ISN: (81415) : L from (0x7fffffffed10) -- of Size = (4) 

-- Sqsh -> ISN (81425)

-- Sqsh -> ISN (81420)

-- ISN: (81467) : L from (0x7fffffffed10) -- of Size = (4) 

-- ISN: (81468) : L from (0x7fffffffed10) -- of Size = (4) 

-- ISN: (81474) : L from (0x7fffffffed10) -- of Size = (4) 

-- ISN: (81477) : S -> 0x(4) at (0x7fffffffed10) -- Size = (4) 

-- ISN: (81473) : S -> 0x(3) at (0x6bc44c) -- Size = (4) 

-- ISN: (81478) : L from (0x7fffffffed10) -- of Size = (4) 

-- ISN: (81484) : L from (0x7fffffffed10) -- of Size = (4) 

-- ISN: (81485) : L from (0x7fffffffed10) -- of Size = (4) 

-- ISN: (81491) : L from (0x7fffffffed10) -- of Size = (4) 

-- ISN: (81490) : S -> 0x(4) at (0x6bc450) -- Size = (4) 

-- ISN: (81494) : S -> 0x(5) at (0x7fffffffed10) -- Size = (4) 

-- ISN: (81495) : L from (0x7fffffffed10) -- of Size = (4) 

-- ISN: (81501) : L from (0x7fffffffed10) -- of Size = (4) 

-- ISN: (81502) : L from (0x7fffffffed10) -- of Size = (4) 

-- ISN: (81508) : L from (0x7fffffffed10) -- of Size = (4) 

-- ISN: (81511) : S -> 0x(6) at (0x7fffffffed10) -- Size = (4) 

-- ISN: (81507) : S -> 0x(5) at (0x6bc454) -- Size = (4) 

-- ISN: (81512) : L from (0x7fffffffed10) -- of Size = (4) 

-- ISN: (81518) : L from (0x7fffffffed10) -- of Size = (4) 

-- ISN: (81519) : L from (0x7fffffffed10) -- of Size = (4) 

-- ISN: (81525) : L from (0x7fffffffed10) -- of Size = (4) 

-- ISN: (81528) : S -> 0x(7) at (0x7fffffffed10) -- Size = (4) 

-- ISN: (81524) : S -> 0x(6) at (0x6bc458) -- Size = (4) 

-- ISN: (81529) : L from (0x7fffffffed10) -- of Size = (4) 

-- ISN: (81535) : L from (0x7fffffffed10) -- of Size = (4) 

-- ISN: (81536) : L from (0x7fffffffed10) -- of Size = (4) 

-- ISN: (81542) : L from (0x7fffffffed10) -- of Size = (4) 

-- ISN: (81545) : S -> 0x(8) at (0x7fffffffed10) -- Size = (4) 

-- ISN: (81541) : S -> 0x(7) at (0x6bc45c) -- Size = (4) 

-- ISN: (81546) : L from (0x7fffffffed10) -- of Size = (4) 

-- ISN: (81552) : L from (0x7fffffffed10) -- of Size = (4) 

-- ISN: (81553) : L from (0x7fffffffed10) -- of Size = (4) 

-- ISN: (81559) : L from (0x7fffffffed10) -- of Size = (4) 

-- ISN: (81562) : S -> 0x(9) at (0x7fffffffed10) -- Size = (4) 

-- ISN: (81558) : S -> 0x(8) at (0x6bc460) -- Size = (4) 

-- ISN: (81563) : L from (0x7fffffffed10) -- of Size = (4) 

-- ISN: (81569) : L from (0x7fffffffed10) -- of Size = (4) 

-- ISN: (81570) : L from (0x7fffffffed10) -- of Size = (4) 

-- ISN: (81576) : L from (0x7fffffffed10) -- of Size = (4) 

-- ISN: (81579) : S -> 0x(a) at (0x7fffffffed10) -- Size = (4) 

-- ISN: (81575) : S -> 0x(9) at (0x6bc464) -- Size = (4) 

-- ISN: (81580) : L from (0x7fffffffed10) -- of Size = (4) 

-- ISN: (81586) : L from (0x7fffffffed10) -- of Size = (4) 

-- ISN: (81587) : L from (0x7fffffffed10) -- of Size = (4) 

-- ISN: (81593) : L from (0x7fffffffed10) -- of Size = (4) 

-- ISN: (81596) : S -> 0x(b) at (0x7fffffffed10) -- Size = (4) 

-- ISN: (81592) : S -> 0x(a) at (0x6bc468) -- Size = (4) 

-- ISN: (81597) : L from (0x7fffffffed10) -- of Size = (4) 

-- ISN: (81603) : L from (0x7fffffffed10) -- of Size = (4) 

-- ISN: (81604) : L from (0x7fffffffed10) -- of Size = (4) 

-- ISN: (81610) : L from (0x7fffffffed10) -- of Size = (4) 

-- ISN: (81613) : S -> 0x(c) at (0x7fffffffed10) -- Size = (4) 

-- ISN: (81609) : S -> 0x(b) at (0x6bc46c) -- Size = (4) 

-- ISN: (81614) : L from (0x7fffffffed10) -- of Size = (4) 

-- ISN: (81620) : L from (0x7fffffffed10) -- of Size = (4) 

-- ISN: (81621) : L from (0x7fffffffed10) -- of Size = (4) 

-- ISN: (81627) : L from (0x7fffffffed10) -- of Size = (4) 

-- ISN: (81630) : S -> 0x(d) at (0x7fffffffed10) -- Size = (4) 

-- ISN: (81626) : S -> 0x(c) at (0x6bc470) -- Size = (4) 

-- ISN: (81631) : L from (0x7fffffffed10) -- of Size = (4) 

-- ISN: (81637) : L from (0x7fffffffed10) -- of Size = (4) 

-- ISN: (81638) : L from (0x7fffffffed10) -- of Size = (4) 

-- ISN: (81644) : L from (0x7fffffffed10) -- of Size = (4) 

-- ISN: (81647) : S -> 0x(e) at (0x7fffffffed10) -- Size = (4) 

-- ISN: (81643) : S -> 0x(d) at (0x6bc474) -- Size = (4) 

-- ISN: (81648) : L from (0x7fffffffed10) -- of Size = (4) 

-- ISN: (81654) : L from (0x7fffffffed10) -- of Size = (4) 

-- ISN: (81655) : L from (0x7fffffffed10) -- of Size = (4) 

-- ISN: (81661) : L from (0x7fffffffed10) -- of Size = (4) 

-- ISN: (81664) : S -> 0x(f) at (0x7fffffffed10) -- Size = (4) 

-- ISN: (81660) : S -> 0x(e) at (0x6bc478) -- Size = (4) 

-- ISN: (81665) : L from (0x7fffffffed10) -- of Size = (4) 

-- ISN: (81671) : L from (0x7fffffffed10) -- of Size = (4) 

-- ISN: (81672) : L from (0x7fffffffed10) -- of Size = (4) 

-- ISN: (81678) : L from (0x7fffffffed10) -- of Size = (4) 

-- ISN: (81681) : S -> 0x(10) at (0x7fffffffed10) -- Size = (4) 

-- ISN: (81677) : S -> 0x(f) at (0x6bc47c) -- Size = (4) 

-- ISN: (81682) : L from (0x7fffffffed10) -- of Size = (4) 

-- ISN: (81688) : L from (0x7fffffffed10) -- of Size = (4) 

-- ISN: (81689) : L from (0x7fffffffed10) -- of Size = (4) 

-- ISN: (81695) : L from (0x7fffffffed10) -- of Size = (4) 

-- ISN: (81698) : S -> 0x(11) at (0x7fffffffed10) -- Size = (4) 

-- ISN: (81694) : S -> 0x(10) at (0x6bc480) -- Size = (4) 

-- ISN: (81699) : L from (0x7fffffffed10) -- of Size = (4) 

-- ISN: (81705) : L from (0x7fffffffed10) -- of Size = (4) 

-- ISN: (81706) : L from (0x7fffffffed10) -- of Size = (4) 

-- ISN: (81712) : L from (0x7fffffffed10) -- of Size = (4) 

-- ISN: (81715) : S -> 0x(12) at (0x7fffffffed10) -- Size = (4) 

-- ISN: (81711) : S -> 0x(11) at (0x6bc484) -- Size = (4) 

-- ISN: (81716) : L from (0x7fffffffed10) -- of Size = (4) 

-- ISN: (81722) : L from (0x7fffffffed10) -- of Size = (4) 

-- ISN: (81723) : L from (0x7fffffffed10) -- of Size = (4) 

-- ISN: (81729) : L from (0x7fffffffed10) -- of Size = (4) 

-- ISN: (81732) : S -> 0x(13) at (0x7fffffffed10) -- Size = (4) 

-- ISN: (81728) : S -> 0x(12) at (0x6bc488) -- Size = (4) 

-- ISN: (81733) : L from (0x7fffffffed10) -- of Size = (4) 

-- ISN: (81739) : L from (0x7fffffffed10) -- of Size = (4) 

-- ISN: (81740) : L from (0x7fffffffed10) -- of Size = (4) 

-- ISN: (81746) : L from (0x7fffffffed10) -- of Size = (4) 

-- ISN: (81749) : S -> 0x(14) at (0x7fffffffed10) -- Size = (4) 

-- ISN: (81745) : S -> 0x(13) at (0x6bc48c) -- Size = (4) 

-- ISN: (81750) : L from (0x7fffffffed10) -- of Size = (4) 

-- ISN: (81756) : L from (0x7fffffffed10) -- of Size = (4) 

-- ISN: (81757) : L from (0x7fffffffed10) -- of Size = (4) 

-- ISN: (81763) : L from (0x7fffffffed10) -- of Size = (4) 

-- ISN: (81766) : S -> 0x(15) at (0x7fffffffed10) -- Size = (4) 

-- ISN: (81762) : S -> 0x(14) at (0x6bc490) -- Size = (4) 

-- ISN: (81767) : L from (0x7fffffffed10) -- of Size = (4) 

-- ISN: (81773) : L from (0x7fffffffed10) -- of Size = (4) 

-- ISN: (81774) : L from (0x7fffffffed10) -- of Size = (4) 

-- ISN: (81780) : L from (0x7fffffffed10) -- of Size = (4) 

-- ISN: (81783) : S -> 0x(16) at (0x7fffffffed10) -- Size = (4) 

-- ISN: (81779) : S -> 0x(15) at (0x6bc494) -- Size = (4) 

-- ISN: (81784) : L from (0x7fffffffed10) -- of Size = (4) 

-- ISN: (81790) : L from (0x7fffffffed10) -- of Size = (4) 

-- ISN: (81791) : L from (0x7fffffffed10) -- of Size = (4) 

-- ISN: (81797) : L from (0x7fffffffed10) -- of Size = (4) 

-- ISN: (81800) : S -> 0x(17) at (0x7fffffffed10) -- Size = (4) 

-- ISN: (81796) : S -> 0x(16) at (0x6bc498) -- Size = (4) 

-- ISN: (81801) : L from (0x7fffffffed10) -- of Size = (4) 

-- ISN: (81807) : L from (0x7fffffffed10) -- of Size = (4) 

-- ISN: (81808) : L from (0x7fffffffed10) -- of Size = (4) 

-- ISN: (81814) : L from (0x7fffffffed10) -- of Size = (4) 

-- ISN: (81817) : S -> 0x(18) at (0x7fffffffed10) -- Size = (4) 

-- ISN: (81813) : S -> 0x(17) at (0x6bc49c) -- Size = (4) 

-- ISN: (81818) : L from (0x7fffffffed10) -- of Size = (4) 

-- ISN: (81824) : L from (0x7fffffffed10) -- of Size = (4) 

-- ISN: (81825) : L from (0x7fffffffed10) -- of Size = (4) 

-- ISN: (81831) : L from (0x7fffffffed10) -- of Size = (4) 

-- ISN: (81834) : S -> 0x(19) at (0x7fffffffed10) -- Size = (4) 

-- ISN: (81830) : S -> 0x(18) at (0x6bc4a0) -- Size = (4) 

-- ISN: (81835) : L from (0x7fffffffed10) -- of Size = (4) 

-- ISN: (81841) : L from (0x7fffffffed10) -- of Size = (4) 

-- ISN: (81842) : L from (0x7fffffffed10) -- of Size = (4) 

-- ISN: (81848) : L from (0x7fffffffed10) -- of Size = (4) 

-- ISN: (81851) : S -> 0x(1a) at (0x7fffffffed10) -- Size = (4) 

-- ISN: (81847) : S -> 0x(19) at (0x6bc4a4) -- Size = (4) 

-- ISN: (81852) : L from (0x7fffffffed10) -- of Size = (4) 

-- ISN: (81858) : L from (0x7fffffffed10) -- of Size = (4) 

-- ISN: (81859) : L from (0x7fffffffed10) -- of Size = (4) 

-- ISN: (81865) : L from (0x7fffffffed10) -- of Size = (4) 

-- ISN: (81868) : S -> 0x(1b) at (0x7fffffffed10) -- Size = (4) 

-- ISN: (81864) : S -> 0x(1a) at (0x6bc4a8) -- Size = (4) 

-- ISN: (81869) : L from (0x7fffffffed10) -- of Size = (4) 

-- ISN: (81875) : L from (0x7fffffffed10) -- of Size = (4) 

-- ISN: (81876) : L from (0x7fffffffed10) -- of Size = (4) 

-- ISN: (81882) : L from (0x7fffffffed10) -- of Size = (4) 

-- ISN: (81885) : S -> 0x(1c) at (0x7fffffffed10) -- Size = (4) 

-- ISN: (81881) : S -> 0x(1b) at (0x6bc4ac) -- Size = (4) 

-- ISN: (81886) : L from (0x7fffffffed10) -- of Size = (4) 

-- ISN: (81892) : L from (0x7fffffffed10) -- of Size = (4) 

-- ISN: (81893) : L from (0x7fffffffed10) -- of Size = (4) 

-- ISN: (81899) : L from (0x7fffffffed10) -- of Size = (4) 

-- ISN: (81902) : S -> 0x(1d) at (0x7fffffffed10) -- Size = (4) 

-- ISN: (81898) : S -> 0x(1c) at (0x6bc4b0) -- Size = (4) 

-- ISN: (81903) : L from (0x7fffffffed10) -- of Size = (4) 

-- ISN: (81909) : L from (0x7fffffffed10) -- of Size = (4) 

-- ISN: (81910) : L from (0x7fffffffed10) -- of Size = (4) 

-- ISN: (81916) : L from (0x7fffffffed10) -- of Size = (4) 

-- ISN: (81919) : S -> 0x(1e) at (0x7fffffffed10) -- Size = (4) 

-- ISN: (81915) : S -> 0x(1d) at (0x6bc4b4) -- Size = (4) 

-- ISN: (81920) : L from (0x7fffffffed10) -- of Size = (4) 

-- ISN: (81926) : L from (0x7fffffffed10) -- of Size = (4) 

-- ISN: (81927) : L from (0x7fffffffed10) -- of Size = (4) 

-- ISN: (81933) : L from (0x7fffffffed10) -- of Size = (4) 

-- ISN: (81936) : S -> 0x(1f) at (0x7fffffffed10) -- Size = (4) 

-- ISN: (81932) : S -> 0x(1e) at (0x6bc4b8) -- Size = (4) 

-- ISN: (81937) : L from (0x7fffffffed10) -- of Size = (4) 

-- ISN: (81943) : L from (0x7fffffffed10) -- of Size = (4) 

-- ISN: (81944) : L from (0x7fffffffed10) -- of Size = (4) 

-- ISN: (81950) : L from (0x7fffffffed10) -- of Size = (4) 

-- ISN: (81953) : S -> 0x(20) at (0x7fffffffed10) -- Size = (4) 

-- ISN: (81949) : S -> 0x(1f) at (0x6bc4bc) -- Size = (4) 

-- ISN: (81954) : L from (0x7fffffffed10) -- of Size = (4) 

-- ISN: (81960) : L from (0x7fffffffed10) -- of Size = (4) 

-- ISN: (81961) : L from (0x7fffffffed10) -- of Size = (4) 

-- ISN: (81967) : L from (0x7fffffffed10) -- of Size = (4) 

-- ISN: (81966) : S -> 0x(20) at (0x6bc4c0) -- Size = (4) 

-- ISN: (81970) : S -> 0x(21) at (0x7fffffffed10) -- Size = (4) 

-- ISN: (81971) : L from (0x7fffffffed10) -- of Size = (4) 

-- ISN: (81977) : L from (0x7fffffffed10) -- of Size = (4) 

-- ISN: (81978) : L from (0x7fffffffed10) -- of Size = (4) 

-- ISN: (81984) : L from (0x7fffffffed10) -- of Size = (4) 

-- ISN: (81994) : L from (0x7fffffffed10) -- of Size = (4) 

-- ISN: (81995) : L from (0x7fffffffed10) -- of Size = (4) 

-- ISN: (81987) : S -> 0x(22) at (0x7fffffffed10) -- Size = (4) 

-- ISN: (82001) : L from (0x7fffffffed10) -- of Size = (4) 

-- ISN: (81983) : S -> 0x(21) at (0x6bc4c4) -- Size = (4) 

-- ISN: (81988) : L from (0x7fffffffed10) -- of Size = (4) 

-- Sqsh -> ISN (81993)

-- ISN: (82028) : L from (0x7fffffffed10) -- of Size = (4) 

-- ISN: (82029) : L from (0x7fffffffed10) -- of Size = (4) 

-- ISN: (82035) : L from (0x7fffffffed10) -- of Size = (4) 

-- ISN: (82038) : S -> 0x(23) at (0x7fffffffed10) -- Size = (4) 

-- ISN: (82034) : S -> 0x(22) at (0x6bc4c8) -- Size = (4) 

-- ISN: (82039) : L from (0x7fffffffed10) -- of Size = (4) 

-- ISN: (82045) : L from (0x7fffffffed10) -- of Size = (4) 

-- ISN: (82046) : L from (0x7fffffffed10) -- of Size = (4) 

-- ISN: (82052) : L from (0x7fffffffed10) -- of Size = (4) 

-- ISN: (82055) : S -> 0x(24) at (0x7fffffffed10) -- Size = (4) 

-- ISN: (82051) : S -> 0x(23) at (0x6bc4cc) -- Size = (4) 

-- ISN: (82056) : L from (0x7fffffffed10) -- of Size = (4) 

-- ISN: (82062) : L from (0x7fffffffed10) -- of Size = (4) 

-- ISN: (82063) : L from (0x7fffffffed10) -- of Size = (4) 

-- ISN: (82069) : L from (0x7fffffffed10) -- of Size = (4) 

-- ISN: (82072) : S -> 0x(25) at (0x7fffffffed10) -- Size = (4) 

-- ISN: (82068) : S -> 0x(24) at (0x6bc4d0) -- Size = (4) 

-- ISN: (82073) : L from (0x7fffffffed10) -- of Size = (4) 

-- ISN: (82079) : L from (0x7fffffffed10) -- of Size = (4) 

-- ISN: (82080) : L from (0x7fffffffed10) -- of Size = (4) 

-- ISN: (82086) : L from (0x7fffffffed10) -- of Size = (4) 

-- ISN: (82089) : S -> 0x(26) at (0x7fffffffed10) -- Size = (4) 

-- ISN: (82085) : S -> 0x(25) at (0x6bc4d4) -- Size = (4) 

-- ISN: (82090) : L from (0x7fffffffed10) -- of Size = (4) 

-- ISN: (82096) : L from (0x7fffffffed10) -- of Size = (4) 

-- ISN: (82097) : L from (0x7fffffffed10) -- of Size = (4) 

-- ISN: (82103) : L from (0x7fffffffed10) -- of Size = (4) 

-- ISN: (82106) : S -> 0x(27) at (0x7fffffffed10) -- Size = (4) 

-- ISN: (82102) : S -> 0x(26) at (0x6bc4d8) -- Size = (4) 

-- ISN: (82107) : L from (0x7fffffffed10) -- of Size = (4) 

-- ISN: (82113) : L from (0x7fffffffed10) -- of Size = (4) 

-- ISN: (82114) : L from (0x7fffffffed10) -- of Size = (4) 

-- ISN: (82120) : L from (0x7fffffffed10) -- of Size = (4) 

-- ISN: (82123) : S -> 0x(28) at (0x7fffffffed10) -- Size = (4) 

-- ISN: (82119) : S -> 0x(27) at (0x6bc4dc) -- Size = (4) 

-- ISN: (82124) : L from (0x7fffffffed10) -- of Size = (4) 

-- ISN: (82130) : L from (0x7fffffffed10) -- of Size = (4) 

-- ISN: (82131) : L from (0x7fffffffed10) -- of Size = (4) 

-- ISN: (82137) : L from (0x7fffffffed10) -- of Size = (4) 

-- ISN: (82140) : S -> 0x(29) at (0x7fffffffed10) -- Size = (4) 

-- ISN: (82136) : S -> 0x(28) at (0x6bc4e0) -- Size = (4) 

-- ISN: (82141) : L from (0x7fffffffed10) -- of Size = (4) 

-- ISN: (82147) : L from (0x7fffffffed10) -- of Size = (4) 

-- ISN: (82148) : L from (0x7fffffffed10) -- of Size = (4) 

-- ISN: (82154) : L from (0x7fffffffed10) -- of Size = (4) 

-- ISN: (82157) : S -> 0x(2a) at (0x7fffffffed10) -- Size = (4) 

-- ISN: (82153) : S -> 0x(29) at (0x6bc4e4) -- Size = (4) 

-- ISN: (82158) : L from (0x7fffffffed10) -- of Size = (4) 

-- ISN: (82164) : L from (0x7fffffffed10) -- of Size = (4) 

-- ISN: (82165) : L from (0x7fffffffed10) -- of Size = (4) 

-- ISN: (82171) : L from (0x7fffffffed10) -- of Size = (4) 

-- ISN: (82174) : S -> 0x(2b) at (0x7fffffffed10) -- Size = (4) 

-- ISN: (82170) : S -> 0x(2a) at (0x6bc4e8) -- Size = (4) 

-- ISN: (82175) : L from (0x7fffffffed10) -- of Size = (4) 

-- ISN: (82181) : L from (0x7fffffffed10) -- of Size = (4) 

-- ISN: (82182) : L from (0x7fffffffed10) -- of Size = (4) 

-- ISN: (82188) : L from (0x7fffffffed10) -- of Size = (4) 

-- ISN: (82191) : S -> 0x(2c) at (0x7fffffffed10) -- Size = (4) 

-- ISN: (82187) : S -> 0x(2b) at (0x6bc4ec) -- Size = (4) 

-- ISN: (82192) : L from (0x7fffffffed10) -- of Size = (4) 

-- ISN: (82198) : L from (0x7fffffffed10) -- of Size = (4) 

-- ISN: (82199) : L from (0x7fffffffed10) -- of Size = (4) 

-- ISN: (82205) : L from (0x7fffffffed10) -- of Size = (4) 

-- ISN: (82208) : S -> 0x(2d) at (0x7fffffffed10) -- Size = (4) 

-- ISN: (82204) : S -> 0x(2c) at (0x6bc4f0) -- Size = (4) 

-- ISN: (82209) : L from (0x7fffffffed10) -- of Size = (4) 

-- ISN: (82215) : L from (0x7fffffffed10) -- of Size = (4) 

-- ISN: (82216) : L from (0x7fffffffed10) -- of Size = (4) 

-- ISN: (82222) : L from (0x7fffffffed10) -- of Size = (4) 

-- ISN: (82225) : S -> 0x(2e) at (0x7fffffffed10) -- Size = (4) 

-- ISN: (82221) : S -> 0x(2d) at (0x6bc4f4) -- Size = (4) 

-- ISN: (82226) : L from (0x7fffffffed10) -- of Size = (4) 

-- ISN: (82232) : L from (0x7fffffffed10) -- of Size = (4) 

-- ISN: (82233) : L from (0x7fffffffed10) -- of Size = (4) 

-- ISN: (82239) : L from (0x7fffffffed10) -- of Size = (4) 

-- ISN: (82242) : S -> 0x(2f) at (0x7fffffffed10) -- Size = (4) 

-- ISN: (82238) : S -> 0x(2e) at (0x6bc4f8) -- Size = (4) 

-- ISN: (82243) : L from (0x7fffffffed10) -- of Size = (4) 

-- ISN: (82249) : L from (0x7fffffffed10) -- of Size = (4) 

-- ISN: (82250) : L from (0x7fffffffed10) -- of Size = (4) 

-- ISN: (82256) : L from (0x7fffffffed10) -- of Size = (4) 

-- ISN: (82259) : S -> 0x(30) at (0x7fffffffed10) -- Size = (4) 

-- ISN: (82255) : S -> 0x(2f) at (0x6bc4fc) -- Size = (4) 

-- ISN: (82260) : L from (0x7fffffffed10) -- of Size = (4) 

-- ISN: (82266) : L from (0x7fffffffed10) -- of Size = (4) 

-- ISN: (82267) : L from (0x7fffffffed10) -- of Size = (4) 

-- ISN: (82273) : L from (0x7fffffffed10) -- of Size = (4) 

-- ISN: (82272) : S -> 0x(30) at (0x6bc500) -- Size = (4) 

-- ISN: (82276) : S -> 0x(31) at (0x7fffffffed10) -- Size = (4) 

-- ISN: (82277) : L from (0x7fffffffed10) -- of Size = (4) 

-- ISN: (82283) : L from (0x7fffffffed10) -- of Size = (4) 

-- ISN: (82284) : L from (0x7fffffffed10) -- of Size = (4) 

-- ISN: (82290) : L from (0x7fffffffed10) -- of Size = (4) 

-- ISN: (82301) : L from (0x7fffffffed10) -- of Size = (4) 

-- ISN: (82293) : S -> 0x(32) at (0x7fffffffed10) -- Size = (4) 

-- ISN: (82307) : L from (0x7fffffffed10) -- of Size = (4) 

-- ISN: (82289) : S -> 0x(31) at (0x6bc504) -- Size = (4) 

-- ISN: (82294) : L from (0x7fffffffed10) -- of Size = (4) 

-- ISN: (82300) : L from (0x7fffffffed10) -- of Size = (4) 

-- Sqsh -> ISN (82300)

-- ISN: (82334) : L from (0x7fffffffed10) -- of Size = (4) 

-- ISN: (82340) : L from (0x7fffffffed10) -- of Size = (4) 

-- ISN: (82339) : S -> 0x(32) at (0x6bc508) -- Size = (4) 

-- ISN: (82343) : S -> 0x(33) at (0x7fffffffed10) -- Size = (4) 

-- ISN: (82344) : L from (0x7fffffffed10) -- of Size = (4) 

-- ISN: (82350) : L from (0x7fffffffed10) -- of Size = (4) 

-- ISN: (82351) : L from (0x7fffffffed10) -- of Size = (4) 

-- ISN: (82357) : L from (0x7fffffffed10) -- of Size = (4) 

-- ISN: (82360) : S -> 0x(34) at (0x7fffffffed10) -- Size = (4) 

-- ISN: (82356) : S -> 0x(33) at (0x6bc50c) -- Size = (4) 

-- ISN: (82361) : L from (0x7fffffffed10) -- of Size = (4) 

-- ISN: (82367) : L from (0x7fffffffed10) -- of Size = (4) 

-- ISN: (82368) : L from (0x7fffffffed10) -- of Size = (4) 

-- ISN: (82374) : L from (0x7fffffffed10) -- of Size = (4) 

-- ISN: (82377) : S -> 0x(35) at (0x7fffffffed10) -- Size = (4) 

-- ISN: (82373) : S -> 0x(34) at (0x6bc510) -- Size = (4) 

-- ISN: (82378) : L from (0x7fffffffed10) -- of Size = (4) 

-- ISN: (82384) : L from (0x7fffffffed10) -- of Size = (4) 

-- ISN: (82385) : L from (0x7fffffffed10) -- of Size = (4) 

-- ISN: (82391) : L from (0x7fffffffed10) -- of Size = (4) 

-- ISN: (82394) : S -> 0x(36) at (0x7fffffffed10) -- Size = (4) 

-- ISN: (82390) : S -> 0x(35) at (0x6bc514) -- Size = (4) 

-- ISN: (82395) : L from (0x7fffffffed10) -- of Size = (4) 

-- ISN: (82401) : L from (0x7fffffffed10) -- of Size = (4) 

-- ISN: (82402) : L from (0x7fffffffed10) -- of Size = (4) 

-- ISN: (82408) : L from (0x7fffffffed10) -- of Size = (4) 

-- ISN: (82411) : S -> 0x(37) at (0x7fffffffed10) -- Size = (4) 

-- ISN: (82407) : S -> 0x(36) at (0x6bc518) -- Size = (4) 

-- ISN: (82412) : L from (0x7fffffffed10) -- of Size = (4) 

-- ISN: (82418) : L from (0x7fffffffed10) -- of Size = (4) 

-- ISN: (82419) : L from (0x7fffffffed10) -- of Size = (4) 

-- ISN: (82425) : L from (0x7fffffffed10) -- of Size = (4) 

-- ISN: (82428) : S -> 0x(38) at (0x7fffffffed10) -- Size = (4) 

-- ISN: (82424) : S -> 0x(37) at (0x6bc51c) -- Size = (4) 

-- ISN: (82429) : L from (0x7fffffffed10) -- of Size = (4) 

-- ISN: (82435) : L from (0x7fffffffed10) -- of Size = (4) 

-- ISN: (82436) : L from (0x7fffffffed10) -- of Size = (4) 

-- ISN: (82442) : L from (0x7fffffffed10) -- of Size = (4) 

-- ISN: (82445) : S -> 0x(39) at (0x7fffffffed10) -- Size = (4) 

-- ISN: (82441) : S -> 0x(38) at (0x6bc520) -- Size = (4) 

-- ISN: (82446) : L from (0x7fffffffed10) -- of Size = (4) 

-- ISN: (82452) : L from (0x7fffffffed10) -- of Size = (4) 

-- ISN: (82453) : L from (0x7fffffffed10) -- of Size = (4) 

-- ISN: (82459) : L from (0x7fffffffed10) -- of Size = (4) 

-- ISN: (82462) : S -> 0x(3a) at (0x7fffffffed10) -- Size = (4) 

-- ISN: (82458) : S -> 0x(39) at (0x6bc524) -- Size = (4) 

-- ISN: (82463) : L from (0x7fffffffed10) -- of Size = (4) 

-- ISN: (82469) : L from (0x7fffffffed10) -- of Size = (4) 

-- ISN: (82470) : L from (0x7fffffffed10) -- of Size = (4) 

-- ISN: (82476) : L from (0x7fffffffed10) -- of Size = (4) 

-- ISN: (82479) : S -> 0x(3b) at (0x7fffffffed10) -- Size = (4) 

-- ISN: (82475) : S -> 0x(3a) at (0x6bc528) -- Size = (4) 

-- ISN: (82480) : L from (0x7fffffffed10) -- of Size = (4) 

-- ISN: (82486) : L from (0x7fffffffed10) -- of Size = (4) 

-- ISN: (82487) : L from (0x7fffffffed10) -- of Size = (4) 

-- ISN: (82493) : L from (0x7fffffffed10) -- of Size = (4) 

-- ISN: (82496) : S -> 0x(3c) at (0x7fffffffed10) -- Size = (4) 

-- ISN: (82492) : S -> 0x(3b) at (0x6bc52c) -- Size = (4) 

-- ISN: (82497) : L from (0x7fffffffed10) -- of Size = (4) 

-- ISN: (82503) : L from (0x7fffffffed10) -- of Size = (4) 

-- ISN: (82504) : L from (0x7fffffffed10) -- of Size = (4) 

-- ISN: (82510) : L from (0x7fffffffed10) -- of Size = (4) 

-- ISN: (82513) : S -> 0x(3d) at (0x7fffffffed10) -- Size = (4) 

-- ISN: (82509) : S -> 0x(3c) at (0x6bc530) -- Size = (4) 

-- ISN: (82514) : L from (0x7fffffffed10) -- of Size = (4) 

-- ISN: (82520) : L from (0x7fffffffed10) -- of Size = (4) 

-- ISN: (82521) : L from (0x7fffffffed10) -- of Size = (4) 

-- ISN: (82527) : L from (0x7fffffffed10) -- of Size = (4) 

-- ISN: (82530) : S -> 0x(3e) at (0x7fffffffed10) -- Size = (4) 

-- ISN: (82526) : S -> 0x(3d) at (0x6bc534) -- Size = (4) 

-- ISN: (82531) : L from (0x7fffffffed10) -- of Size = (4) 

-- ISN: (82537) : L from (0x7fffffffed10) -- of Size = (4) 

-- ISN: (82538) : L from (0x7fffffffed10) -- of Size = (4) 

-- ISN: (82544) : L from (0x7fffffffed10) -- of Size = (4) 

-- ISN: (82547) : S -> 0x(3f) at (0x7fffffffed10) -- Size = (4) 

-- ISN: (82543) : S -> 0x(3e) at (0x6bc538) -- Size = (4) 

-- ISN: (82548) : L from (0x7fffffffed10) -- of Size = (4) 

-- ISN: (82554) : L from (0x7fffffffed10) -- of Size = (4) 

-- ISN: (82555) : L from (0x7fffffffed10) -- of Size = (4) 

-- ISN: (82561) : L from (0x7fffffffed10) -- of Size = (4) 

-- ISN: (82564) : S -> 0x(40) at (0x7fffffffed10) -- Size = (4) 

-- ISN: (82560) : S -> 0x(3f) at (0x6bc53c) -- Size = (4) 

-- ISN: (82565) : L from (0x7fffffffed10) -- of Size = (4) 

-- ISN: (82571) : L from (0x7fffffffed10) -- of Size = (4) 

-- ISN: (82572) : L from (0x7fffffffed10) -- of Size = (4) 

-- ISN: (82578) : L from (0x7fffffffed10) -- of Size = (4) 

-- ISN: (82577) : S -> 0x(40) at (0x6bc540) -- Size = (4) 

-- ISN: (82581) : S -> 0x(41) at (0x7fffffffed10) -- Size = (4) 

-- ISN: (82582) : L from (0x7fffffffed10) -- of Size = (4) 

-- ISN: (82588) : L from (0x7fffffffed10) -- of Size = (4) 

-- ISN: (82589) : L from (0x7fffffffed10) -- of Size = (4) 

-- ISN: (82595) : L from (0x7fffffffed10) -- of Size = (4) 

-- ISN: (82598) : S -> 0x(42) at (0x7fffffffed10) -- Size = (4) 

-- ISN: (82612) : L from (0x7fffffffed10) -- of Size = (4) 

-- ISN: (82594) : S -> 0x(41) at (0x6bc544) -- Size = (4) 

-- ISN: (82599) : L from (0x7fffffffed10) -- of Size = (4) 

-- ISN: (82605) : L from (0x7fffffffed10) -- of Size = (4) 

-- ISN: (82606) : L from (0x7fffffffed10) -- of Size = (4) 

-- ISN: (82615) : S -> 0x(43) at (0x7fffffffed10) -- Size = (4) 

-- ISN: (82616) : L from (0x7fffffffed10) -- of Size = (4) 

-- ISN: (82622) : L from (0x7fffffffed10) -- of Size = (4) 

-- ISN: (82623) : L from (0x7fffffffed10) -- of Size = (4) 

-- ISN: (82629) : L from (0x7fffffffed10) -- of Size = (4) 

-- ISN: (82611) : S -> 0x(42) at (0x6bc548) -- Size = (4) 

-- ISN: (82632) : S -> 0x(44) at (0x7fffffffed10) -- Size = (4) 

-- ISN: (82628) : S -> 0x(43) at (0x6bc54c) -- Size = (4) 

-- ISN: (82633) : L from (0x7fffffffed10) -- of Size = (4) 

-- ISN: (82639) : L from (0x7fffffffed10) -- of Size = (4) 

-- ISN: (82640) : L from (0x7fffffffed10) -- of Size = (4) 

-- ISN: (82646) : L from (0x7fffffffed10) -- of Size = (4) 

-- ISN: (82645) : S -> 0x(44) at (0x6bc550) -- Size = (4) 

-- ISN: (82649) : S -> 0x(45) at (0x7fffffffed10) -- Size = (4) 

-- ISN: (82650) : L from (0x7fffffffed10) -- of Size = (4) 

-- ISN: (82656) : L from (0x7fffffffed10) -- of Size = (4) 

-- ISN: (82657) : L from (0x7fffffffed10) -- of Size = (4) 

-- ISN: (82663) : L from (0x7fffffffed10) -- of Size = (4) 

-- ISN: (82666) : S -> 0x(46) at (0x7fffffffed10) -- Size = (4) 

-- ISN: (82662) : S -> 0x(45) at (0x6bc554) -- Size = (4) 

-- ISN: (82667) : L from (0x7fffffffed10) -- of Size = (4) 

-- ISN: (82673) : L from (0x7fffffffed10) -- of Size = (4) 

-- ISN: (82674) : L from (0x7fffffffed10) -- of Size = (4) 

-- ISN: (82680) : L from (0x7fffffffed10) -- of Size = (4) 

-- ISN: (82683) : S -> 0x(47) at (0x7fffffffed10) -- Size = (4) 

-- ISN: (82679) : S -> 0x(46) at (0x6bc558) -- Size = (4) 

-- ISN: (82684) : L from (0x7fffffffed10) -- of Size = (4) 

-- ISN: (82690) : L from (0x7fffffffed10) -- of Size = (4) 

-- ISN: (82691) : L from (0x7fffffffed10) -- of Size = (4) 

-- ISN: (82697) : L from (0x7fffffffed10) -- of Size = (4) 

-- ISN: (82700) : S -> 0x(48) at (0x7fffffffed10) -- Size = (4) 

-- ISN: (82696) : S -> 0x(47) at (0x6bc55c) -- Size = (4) 

-- ISN: (82701) : L from (0x7fffffffed10) -- of Size = (4) 

-- ISN: (82707) : L from (0x7fffffffed10) -- of Size = (4) 

-- ISN: (82708) : L from (0x7fffffffed10) -- of Size = (4) 

-- ISN: (82714) : L from (0x7fffffffed10) -- of Size = (4) 

-- ISN: (82717) : S -> 0x(49) at (0x7fffffffed10) -- Size = (4) 

-- ISN: (82713) : S -> 0x(48) at (0x6bc560) -- Size = (4) 

-- ISN: (82718) : L from (0x7fffffffed10) -- of Size = (4) 

-- ISN: (82724) : L from (0x7fffffffed10) -- of Size = (4) 

-- ISN: (82725) : L from (0x7fffffffed10) -- of Size = (4) 

-- ISN: (82731) : L from (0x7fffffffed10) -- of Size = (4) 

-- ISN: (82734) : S -> 0x(4a) at (0x7fffffffed10) -- Size = (4) 

-- ISN: (82730) : S -> 0x(49) at (0x6bc564) -- Size = (4) 

-- ISN: (82735) : L from (0x7fffffffed10) -- of Size = (4) 

-- ISN: (82741) : L from (0x7fffffffed10) -- of Size = (4) 

-- ISN: (82742) : L from (0x7fffffffed10) -- of Size = (4) 

-- ISN: (82748) : L from (0x7fffffffed10) -- of Size = (4) 

-- ISN: (82751) : S -> 0x(4b) at (0x7fffffffed10) -- Size = (4) 

-- ISN: (82747) : S -> 0x(4a) at (0x6bc568) -- Size = (4) 

-- ISN: (82752) : L from (0x7fffffffed10) -- of Size = (4) 

-- ISN: (82758) : L from (0x7fffffffed10) -- of Size = (4) 

-- ISN: (82759) : L from (0x7fffffffed10) -- of Size = (4) 

-- ISN: (82765) : L from (0x7fffffffed10) -- of Size = (4) 

-- ISN: (82768) : S -> 0x(4c) at (0x7fffffffed10) -- Size = (4) 

-- ISN: (82764) : S -> 0x(4b) at (0x6bc56c) -- Size = (4) 

-- ISN: (82769) : L from (0x7fffffffed10) -- of Size = (4) 

-- ISN: (82775) : L from (0x7fffffffed10) -- of Size = (4) 

-- ISN: (82776) : L from (0x7fffffffed10) -- of Size = (4) 

-- ISN: (82782) : L from (0x7fffffffed10) -- of Size = (4) 

-- ISN: (82785) : S -> 0x(4d) at (0x7fffffffed10) -- Size = (4) 

-- ISN: (82781) : S -> 0x(4c) at (0x6bc570) -- Size = (4) 

-- ISN: (82786) : L from (0x7fffffffed10) -- of Size = (4) 

-- ISN: (82792) : L from (0x7fffffffed10) -- of Size = (4) 

-- ISN: (82793) : L from (0x7fffffffed10) -- of Size = (4) 

-- ISN: (82799) : L from (0x7fffffffed10) -- of Size = (4) 

-- ISN: (82802) : S -> 0x(4e) at (0x7fffffffed10) -- Size = (4) 

-- ISN: (82798) : S -> 0x(4d) at (0x6bc574) -- Size = (4) 

-- ISN: (82803) : L from (0x7fffffffed10) -- of Size = (4) 

-- ISN: (82809) : L from (0x7fffffffed10) -- of Size = (4) 

-- ISN: (82810) : L from (0x7fffffffed10) -- of Size = (4) 

-- ISN: (82816) : L from (0x7fffffffed10) -- of Size = (4) 

-- ISN: (82819) : S -> 0x(4f) at (0x7fffffffed10) -- Size = (4) 

-- ISN: (82815) : S -> 0x(4e) at (0x6bc578) -- Size = (4) 

-- ISN: (82820) : L from (0x7fffffffed10) -- of Size = (4) 

-- ISN: (82826) : L from (0x7fffffffed10) -- of Size = (4) 

-- ISN: (82827) : L from (0x7fffffffed10) -- of Size = (4) 

-- ISN: (82833) : L from (0x7fffffffed10) -- of Size = (4) 

-- ISN: (82836) : S -> 0x(50) at (0x7fffffffed10) -- Size = (4) 

-- ISN: (82832) : S -> 0x(4f) at (0x6bc57c) -- Size = (4) 

-- ISN: (82837) : L from (0x7fffffffed10) -- of Size = (4) 

-- ISN: (82843) : L from (0x7fffffffed10) -- of Size = (4) 

-- ISN: (82844) : L from (0x7fffffffed10) -- of Size = (4) 

-- ISN: (82850) : L from (0x7fffffffed10) -- of Size = (4) 

-- ISN: (82849) : S -> 0x(50) at (0x6bc580) -- Size = (4) 

-- ISN: (82853) : S -> 0x(51) at (0x7fffffffed10) -- Size = (4) 

-- ISN: (82854) : L from (0x7fffffffed10) -- of Size = (4) 

-- ISN: (82860) : L from (0x7fffffffed10) -- of Size = (4) 

-- ISN: (82861) : L from (0x7fffffffed10) -- of Size = (4) 

-- ISN: (82867) : L from (0x7fffffffed10) -- of Size = (4) 

-- ISN: (82870) : S -> 0x(52) at (0x7fffffffed10) -- Size = (4) 

-- ISN: (82884) : L from (0x7fffffffed10) -- of Size = (4) 

-- ISN: (82866) : S -> 0x(51) at (0x6bc584) -- Size = (4) 

-- ISN: (82871) : L from (0x7fffffffed10) -- of Size = (4) 

-- ISN: (82877) : L from (0x7fffffffed10) -- of Size = (4) 

-- ISN: (82878) : L from (0x7fffffffed10) -- of Size = (4) 

-- ISN: (82887) : S -> 0x(53) at (0x7fffffffed10) -- Size = (4) 

-- ISN: (82888) : L from (0x7fffffffed10) -- of Size = (4) 

-- ISN: (82894) : L from (0x7fffffffed10) -- of Size = (4) 

-- ISN: (82895) : L from (0x7fffffffed10) -- of Size = (4) 

-- ISN: (82901) : L from (0x7fffffffed10) -- of Size = (4) 

-- ISN: (82883) : S -> 0x(52) at (0x6bc588) -- Size = (4) 

-- ISN: (82904) : S -> 0x(54) at (0x7fffffffed10) -- Size = (4) 

-- ISN: (82900) : S -> 0x(53) at (0x6bc58c) -- Size = (4) 

-- ISN: (82905) : L from (0x7fffffffed10) -- of Size = (4) 

-- ISN: (82911) : L from (0x7fffffffed10) -- of Size = (4) 

-- ISN: (82912) : L from (0x7fffffffed10) -- of Size = (4) 

-- ISN: (82918) : L from (0x7fffffffed10) -- of Size = (4) 

-- ISN: (82917) : S -> 0x(54) at (0x6bc590) -- Size = (4) 

-- ISN: (82921) : S -> 0x(55) at (0x7fffffffed10) -- Size = (4) 

-- ISN: (82922) : L from (0x7fffffffed10) -- of Size = (4) 

-- ISN: (82928) : L from (0x7fffffffed10) -- of Size = (4) 

-- ISN: (82929) : L from (0x7fffffffed10) -- of Size = (4) 

-- ISN: (82935) : L from (0x7fffffffed10) -- of Size = (4) 

-- ISN: (82938) : S -> 0x(56) at (0x7fffffffed10) -- Size = (4) 

-- ISN: (82934) : S -> 0x(55) at (0x6bc594) -- Size = (4) 

-- ISN: (82939) : L from (0x7fffffffed10) -- of Size = (4) 

-- ISN: (82945) : L from (0x7fffffffed10) -- of Size = (4) 

-- ISN: (82946) : L from (0x7fffffffed10) -- of Size = (4) 

-- ISN: (82952) : L from (0x7fffffffed10) -- of Size = (4) 

-- ISN: (82955) : S -> 0x(57) at (0x7fffffffed10) -- Size = (4) 

-- ISN: (82951) : S -> 0x(56) at (0x6bc598) -- Size = (4) 

-- ISN: (82956) : L from (0x7fffffffed10) -- of Size = (4) 

-- ISN: (82962) : L from (0x7fffffffed10) -- of Size = (4) 

-- ISN: (82963) : L from (0x7fffffffed10) -- of Size = (4) 

-- ISN: (82969) : L from (0x7fffffffed10) -- of Size = (4) 

-- ISN: (82972) : S -> 0x(58) at (0x7fffffffed10) -- Size = (4) 

-- ISN: (82968) : S -> 0x(57) at (0x6bc59c) -- Size = (4) 

-- ISN: (82973) : L from (0x7fffffffed10) -- of Size = (4) 

-- ISN: (82979) : L from (0x7fffffffed10) -- of Size = (4) 

-- ISN: (82980) : L from (0x7fffffffed10) -- of Size = (4) 

-- ISN: (82986) : L from (0x7fffffffed10) -- of Size = (4) 

-- ISN: (82989) : S -> 0x(59) at (0x7fffffffed10) -- Size = (4) 

-- ISN: (82985) : S -> 0x(58) at (0x6bc5a0) -- Size = (4) 

-- ISN: (82990) : L from (0x7fffffffed10) -- of Size = (4) 

-- ISN: (82996) : L from (0x7fffffffed10) -- of Size = (4) 

-- ISN: (82997) : L from (0x7fffffffed10) -- of Size = (4) 

-- ISN: (83003) : L from (0x7fffffffed10) -- of Size = (4) 

-- ISN: (83006) : S -> 0x(5a) at (0x7fffffffed10) -- Size = (4) 

-- ISN: (83002) : S -> 0x(59) at (0x6bc5a4) -- Size = (4) 

-- ISN: (83007) : L from (0x7fffffffed10) -- of Size = (4) 

-- ISN: (83013) : L from (0x7fffffffed10) -- of Size = (4) 

-- ISN: (83014) : L from (0x7fffffffed10) -- of Size = (4) 

-- ISN: (83020) : L from (0x7fffffffed10) -- of Size = (4) 

-- ISN: (83023) : S -> 0x(5b) at (0x7fffffffed10) -- Size = (4) 

-- ISN: (83019) : S -> 0x(5a) at (0x6bc5a8) -- Size = (4) 

-- ISN: (83024) : L from (0x7fffffffed10) -- of Size = (4) 

-- ISN: (83030) : L from (0x7fffffffed10) -- of Size = (4) 

-- ISN: (83031) : L from (0x7fffffffed10) -- of Size = (4) 

-- ISN: (83037) : L from (0x7fffffffed10) -- of Size = (4) 

-- ISN: (83040) : S -> 0x(5c) at (0x7fffffffed10) -- Size = (4) 

-- ISN: (83036) : S -> 0x(5b) at (0x6bc5ac) -- Size = (4) 

-- ISN: (83041) : L from (0x7fffffffed10) -- of Size = (4) 

-- ISN: (83047) : L from (0x7fffffffed10) -- of Size = (4) 

-- ISN: (83048) : L from (0x7fffffffed10) -- of Size = (4) 

-- ISN: (83054) : L from (0x7fffffffed10) -- of Size = (4) 

-- ISN: (83057) : S -> 0x(5d) at (0x7fffffffed10) -- Size = (4) 

-- ISN: (83053) : S -> 0x(5c) at (0x6bc5b0) -- Size = (4) 

-- ISN: (83058) : L from (0x7fffffffed10) -- of Size = (4) 

-- ISN: (83064) : L from (0x7fffffffed10) -- of Size = (4) 

-- ISN: (83065) : L from (0x7fffffffed10) -- of Size = (4) 

-- ISN: (83071) : L from (0x7fffffffed10) -- of Size = (4) 

-- ISN: (83074) : S -> 0x(5e) at (0x7fffffffed10) -- Size = (4) 

-- ISN: (83070) : S -> 0x(5d) at (0x6bc5b4) -- Size = (4) 

-- ISN: (83075) : L from (0x7fffffffed10) -- of Size = (4) 

-- ISN: (83081) : L from (0x7fffffffed10) -- of Size = (4) 

-- ISN: (83082) : L from (0x7fffffffed10) -- of Size = (4) 

-- ISN: (83088) : L from (0x7fffffffed10) -- of Size = (4) 

-- ISN: (83091) : S -> 0x(5f) at (0x7fffffffed10) -- Size = (4) 

-- ISN: (83087) : S -> 0x(5e) at (0x6bc5b8) -- Size = (4) 

-- ISN: (83092) : L from (0x7fffffffed10) -- of Size = (4) 

-- ISN: (83098) : L from (0x7fffffffed10) -- of Size = (4) 

-- ISN: (83099) : L from (0x7fffffffed10) -- of Size = (4) 

-- ISN: (83105) : L from (0x7fffffffed10) -- of Size = (4) 

-- ISN: (83108) : S -> 0x(60) at (0x7fffffffed10) -- Size = (4) 

-- ISN: (83104) : S -> 0x(5f) at (0x6bc5bc) -- Size = (4) 

-- ISN: (83109) : L from (0x7fffffffed10) -- of Size = (4) 

-- ISN: (83115) : L from (0x7fffffffed10) -- of Size = (4) 

-- ISN: (83116) : L from (0x7fffffffed10) -- of Size = (4) 

-- ISN: (83122) : L from (0x7fffffffed10) -- of Size = (4) 

-- ISN: (83121) : S -> 0x(60) at (0x6bc5c0) -- Size = (4) 

-- ISN: (83125) : S -> 0x(61) at (0x7fffffffed10) -- Size = (4) 

-- ISN: (83126) : L from (0x7fffffffed10) -- of Size = (4) 

-- ISN: (83132) : L from (0x7fffffffed10) -- of Size = (4) 

-- ISN: (83133) : L from (0x7fffffffed10) -- of Size = (4) 

-- ISN: (83139) : L from (0x7fffffffed10) -- of Size = (4) 

-- ISN: (83142) : S -> 0x(62) at (0x7fffffffed10) -- Size = (4) 

-- ISN: (83156) : L from (0x7fffffffed10) -- of Size = (4) 

-- ISN: (83138) : S -> 0x(61) at (0x6bc5c4) -- Size = (4) 

-- ISN: (83143) : L from (0x7fffffffed10) -- of Size = (4) 

-- ISN: (83149) : L from (0x7fffffffed10) -- of Size = (4) 

-- ISN: (83150) : L from (0x7fffffffed10) -- of Size = (4) 

-- ISN: (83159) : S -> 0x(63) at (0x7fffffffed10) -- Size = (4) 

-- ISN: (83160) : L from (0x7fffffffed10) -- of Size = (4) 

-- ISN: (83166) : L from (0x7fffffffed10) -- of Size = (4) 

-- ISN: (83167) : L from (0x7fffffffed10) -- of Size = (4) 

-- ISN: (83173) : L from (0x7fffffffed10) -- of Size = (4) 

-- ISN: (83155) : S -> 0x(62) at (0x6bc5c8) -- Size = (4) 

-- ISN: (83176) : S -> 0x(64) at (0x7fffffffed10) -- Size = (4) 

-- ISN: (83172) : S -> 0x(63) at (0x6bc5cc) -- Size = (4) 

-- ISN: (83177) : L from (0x7fffffffed10) -- of Size = (4) 

-- ISN: (83183) : L from (0x7fffffffed10) -- of Size = (4) 

-- ISN: (83184) : L from (0x7fffffffed10) -- of Size = (4) 

-- ISN: (83190) : L from (0x7fffffffed10) -- of Size = (4) 

-- ISN: (83189) : S -> 0x(64) at (0x6bc5d0) -- Size = (4) 

-- ISN: (83193) : S -> 0x(65) at (0x7fffffffed10) -- Size = (4) 

-- Sqsh -> ISN (83182)

-- ISN: (83222) : L from (0x7fffffffed14) -- of Size = (4) 

-- ISN: (83218) : S -> 0x(0) at (0x7fffffffed14) -- Size = (4) 

-- ISN: (83229) : L from (0x7fffffffed14) -- of Size = (4) 

-- Sqsh -> ISN (83221)

-- ISN: (83266) : L from (0x7fffffffed14) -- of Size = (4) 

-- ISN: (83275) : S -> 0x(d8) at (0x7fffffffed08) -- Size = (8) 

-- ISN: (83279) : S -> 0x(0) at (0x7fffffffed10) -- Size = (4) 

-- ISN: (83283) : L from (0x7fffffffed10) -- of Size = (4) 

-- ISN: (83287) : L from (0x7fffffffed10) -- of Size = (4) 

-- Sqsh -> ISN (83271)

-- ISN: (83325) : L from (0x7fffffffed14) -- of Size = (4) 

-- ISN: (83332) : L from (0x7fffffffed14) -- of Size = (4) 

-- ISN: (83329) : S -> 0x(bd) at (0x7fffffffed08) -- Size = (8) 

-- ISN: (83336) : L from (0x7fffffffed14) -- of Size = (4) 

-- Sqsh -> ISN (83331)

-- ISN: (83388) : S -> 0x(20) at (0x7fffffffed00) -- Size = (8) 

-- ISN: (83391) : S -> 0x(0) at (0x7fffffffecec) -- Size = (4) 

-- ISN: (83393) : L from (0x7fffffffecec) -- of Size = (4) 

-- ISN: (83398) : L from (0x7fffffffecec) -- of Size = (4) 

-- ISN: (83406) : L from (0x7fffffffecec) -- of Size = (4) 

-- ISN: (83419) : L from (0x7fffffffecfc) -- of Size = (4) 

-- ISN: (83424) : L from (0x7fffffffed00) -- of Size = (8) 

-- ISN: (83427) : L from (0x7fffffffed08) -- of Size = (8) 

-- ISN: (83404) : L from (0x6bc5e0) -- of Size = (4) 

-- ISN: (83430) : L from (0x7fffffffed14) -- of Size = (4) 

-- ISN: (83411) : L from (0x6bc440) -- of Size = (4) 

-- ISN: (83434) : L from (0x7fffffffed14) -- of Size = (4) 

-- ISN: (83433) : S -> 0x(1) at (0x7fffffffed14) -- Size = (4) 

-- ISN: (83443) : S -> 0x(d8) at (0x7fffffffed08) -- Size = (8) 

-- ISN: (83447) : S -> 0x(0) at (0x7fffffffed10) -- Size = (4) 

-- ISN: (83451) : L from (0x7fffffffed10) -- of Size = (4) 

-- ISN: (83455) : L from (0x7fffffffed10) -- of Size = (4) 

-- Sqsh -> ISN (83433)

-- ISN: (83415) : L from (0x6bc3c0) -- of Size = (1) 

-- ISN: (83486) : L from (0x7fffffffed14) -- of Size = (4) 

-- ISN: (83495) : S -> 0x(d8) at (0x7fffffffed08) -- Size = (8) 

-- ISN: (83499) : S -> 0x(0) at (0x7fffffffed10) -- Size = (4) 

-- ISN: (83503) : L from (0x7fffffffed10) -- of Size = (4) 

-- ISN: (83507) : L from (0x7fffffffed10) -- of Size = (4) 

-- Sqsh -> ISN (83491)

-- ISN: (83545) : L from (0x7fffffffed14) -- of Size = (4) 

-- ISN: (83552) : L from (0x7fffffffed14) -- of Size = (4) 

-- ISN: (83549) : S -> 0x(bd) at (0x7fffffffed08) -- Size = (8) 

-- Sqsh -> ISN (83551)

-- ISN: (83608) : S -> 0x(20) at (0x7fffffffed00) -- Size = (8) 

-- ISN: (83611) : S -> 0x(1) at (0x7fffffffecec) -- Size = (4) 

-- ISN: (83613) : L from (0x7fffffffecec) -- of Size = (4) 

-- ISN: (83618) : L from (0x7fffffffecec) -- of Size = (4) 

-- ISN: (83626) : L from (0x7fffffffecec) -- of Size = (4) 

-- ISN: (83639) : L from (0x7fffffffecfc) -- of Size = (4) 

-- ISN: (83644) : L from (0x7fffffffed00) -- of Size = (8) 

-- ISN: (83647) : L from (0x7fffffffed08) -- of Size = (8) 

-- ISN: (83650) : L from (0x7fffffffed14) -- of Size = (4) 

-- ISN: (83653) : S -> 0x(2) at (0x7fffffffed14) -- Size = (4) 

-- ISN: (83663) : S -> 0x(d8) at (0x7fffffffed08) -- Size = (8) 

-- ISN: (83654) : L from (0x7fffffffed14) -- of Size = (4) 

-- Sqsh -> ISN (83665)

-- Sqsh -> ISN (83659)

-- ISN: (83405) : S -> 0x(0) at (0x7fffffffecfc) -- Size = (4) 

-- Sqsh -> ISN (83418)

-- ISN: (83746) : L from (0x7fffffffecfc) -- of Size = (4) 

-- ISN: (83751) : L from (0x7fffffffed00) -- of Size = (8) 

-- ISN: (83754) : L from (0x7fffffffed08) -- of Size = (8) 

-- ISN: (83749) : S -> 0x(0) at (0x6bc424) -- Size = (4) 

-- ISN: (83771) : S -> 0x(bd) at (0x7fffffffed08) -- Size = (8) 

-- ISN: (83757) : L from (0x7fffffffed14) -- of Size = (4) 

-- ISN: (83774) : S -> 0x(20) at (0x7fffffffed00) -- Size = (8) 

-- ISN: (83779) : L from (0x7fffffffecec) -- of Size = (4) 

-- ISN: (83784) : L from (0x7fffffffecec) -- of Size = (4) 

-- ISN: (83810) : L from (0x7fffffffed00) -- of Size = (8) 

-- ISN: (83760) : S -> 0x(1) at (0x7fffffffed14) -- Size = (4) 

-- ISN: (83813) : L from (0x7fffffffed08) -- of Size = (8) 

-- ISN: (83761) : L from (0x7fffffffed14) -- of Size = (4) 

-- ISN: (83767) : L from (0x7fffffffed14) -- of Size = (4) 

-- ISN: (83816) : L from (0x7fffffffed14) -- of Size = (4) 

-- ISN: (83777) : S -> 0x(1) at (0x7fffffffecec) -- Size = (4) 

-- ISN: (83790) : L from (0x6bc5e0) -- of Size = (4) 

-- ISN: (83819) : S -> 0x(2) at (0x7fffffffed14) -- Size = (4) 

-- ISN: (83833) : L from (0x7fffffffed14) -- of Size = (4) 

-- Sqsh -> ISN (83778)

-- ISN: (83866) : L from (0x7fffffffecec) -- of Size = (4) 

-- ISN: (83871) : L from (0x7fffffffecec) -- of Size = (4) 

-- ISN: (83897) : L from (0x7fffffffed00) -- of Size = (8) 

-- ISN: (83877) : L from (0x6bd5e0) -- of Size = (4) 

-- ISN: (83900) : L from (0x7fffffffed08) -- of Size = (8) 

-- ISN: (83903) : L from (0x7fffffffed14) -- of Size = (4) 

-- ISN: (83920) : L from (0x7fffffffed14) -- of Size = (4) 

-- ISN: (83917) : S -> 0x(bd) at (0x7fffffffed08) -- Size = (8) 

-- Sqsh -> ISN (83919)

-- ISN: (83906) : S -> 0x(2) at (0x7fffffffed14) -- Size = (4) 

-- ISN: (83907) : L from (0x7fffffffed14) -- of Size = (4) 

-- ISN: (83913) : L from (0x7fffffffed14) -- of Size = (4) 

-- ISN: (83957) : S -> 0x(20) at (0x7fffffffed00) -- Size = (8) 

-- ISN: (83960) : S -> 0x(2) at (0x7fffffffecec) -- Size = (4) 

-- ISN: (83967) : L from (0x7fffffffecec) -- of Size = (4) 

-- ISN: (83962) : L from (0x7fffffffecec) -- of Size = (4) 

-- ISN: (83993) : L from (0x7fffffffed00) -- of Size = (8) 

-- ISN: (83996) : L from (0x7fffffffed08) -- of Size = (8) 

-- ISN: (83999) : L from (0x7fffffffed14) -- of Size = (4) 

-- ISN: (84002) : S -> 0x(3) at (0x7fffffffed14) -- Size = (4) 

-- ISN: (84012) : S -> 0x(d8) at (0x7fffffffed08) -- Size = (8) 

-- ISN: (84016) : S -> 0x(0) at (0x7fffffffed10) -- Size = (4) 

-- ISN: (84020) : L from (0x7fffffffed10) -- of Size = (4) 

-- ISN: (84003) : L from (0x7fffffffed14) -- of Size = (4) 

-- ISN: (84024) : L from (0x7fffffffed10) -- of Size = (4) 

-- Sqsh -> ISN (84014)

-- Sqsh -> ISN (84008)

-- ISN: (84063) : L from (0x7fffffffed14) -- of Size = (4) 

-- ISN: (84070) : L from (0x7fffffffed14) -- of Size = (4) 

-- ISN: (84067) : S -> 0x(bd) at (0x7fffffffed08) -- Size = (8) 

-- Sqsh -> ISN (84069)

-- ISN: (84123) : S -> 0x(20) at (0x7fffffffed00) -- Size = (8) 

-- ISN: (84126) : S -> 0x(3) at (0x7fffffffecec) -- Size = (4) 

-- ISN: (84133) : L from (0x7fffffffecec) -- of Size = (4) 

-- ISN: (84128) : L from (0x7fffffffecec) -- of Size = (4) 

-- ISN: (83878) : S -> 0x(0) at (0x7fffffffecfc) -- Size = (4) 

-- ISN: (83879) : L from (0x7fffffffecec) -- of Size = (4) 

-- ISN: (83892) : L from (0x7fffffffecfc) -- of Size = (4) 

-- ISN: (83884) : L from (0x6bc444) -- of Size = (4) 

-- ISN: (83888) : L from (0x6bc3c1) -- of Size = (1) 

-- ISN: (84159) : L from (0x7fffffffed00) -- of Size = (8) 

-- ISN: (84162) : L from (0x7fffffffed08) -- of Size = (8) 

-- ISN: (83895) : S -> 0x(0) at (0x6bc424) -- Size = (4) 

-- ISN: (83973) : L from (0x6be5e0) -- of Size = (4) 

-- ISN: (84165) : L from (0x7fffffffed14) -- of Size = (4) 

-- ISN: (84168) : S -> 0x(4) at (0x7fffffffed14) -- Size = (4) 

-- ISN: (84169) : L from (0x7fffffffed14) -- of Size = (4) 

-- ISN: (84178) : S -> 0x(d8) at (0x7fffffffed08) -- Size = (8) 

-- ISN: (84182) : S -> 0x(0) at (0x7fffffffed10) -- Size = (4) 

-- ISN: (84186) : L from (0x7fffffffed10) -- of Size = (4) 

-- ISN: (84190) : L from (0x7fffffffed10) -- of Size = (4) 

-- Sqsh -> ISN (84180)

-- Sqsh -> ISN (84174)

-- ISN: (84236) : L from (0x7fffffffed14) -- of Size = (4) 

-- ISN: (84243) : L from (0x7fffffffed14) -- of Size = (4) 

-- ISN: (84240) : S -> 0x(bd) at (0x7fffffffed08) -- Size = (8) 

-- Sqsh -> ISN (84242)

-- ISN: (84296) : S -> 0x(20) at (0x7fffffffed00) -- Size = (8) 

-- ISN: (84299) : S -> 0x(4) at (0x7fffffffecec) -- Size = (4) 

-- ISN: (84301) : L from (0x7fffffffecec) -- of Size = (4) 

-- ISN: (83974) : S -> 0x(0) at (0x7fffffffecfc) -- Size = (4) 

-- ISN: (83975) : L from (0x7fffffffecec) -- of Size = (4) 

-- ISN: (83988) : L from (0x7fffffffecfc) -- of Size = (4) 

-- ISN: (83980) : L from (0x6bc448) -- of Size = (4) 

-- ISN: (83984) : L from (0x6bc3c2) -- of Size = (1) 

-- ISN: (84306) : L from (0x7fffffffecec) -- of Size = (4) 

-- ISN: (83991) : S -> 0x(0) at (0x6bc424) -- Size = (4) 

-- ISN: (84139) : L from (0x6bf5e0) -- of Size = (4) 

-- ISN: (84332) : L from (0x7fffffffed00) -- of Size = (8) 

-- ISN: (84335) : L from (0x7fffffffed08) -- of Size = (8) 

-- ISN: (84338) : L from (0x7fffffffed14) -- of Size = (4) 

-- ISN: (84352) : S -> 0x(bd) at (0x7fffffffed08) -- Size = (8) 

-- ISN: (84355) : S -> 0x(20) at (0x7fffffffed00) -- Size = (8) 

-- ISN: (84365) : L from (0x7fffffffecec) -- of Size = (4) 

-- ISN: (84341) : S -> 0x(5) at (0x7fffffffed14) -- Size = (4) 

-- ISN: (84342) : L from (0x7fffffffed14) -- of Size = (4) 

-- ISN: (84348) : L from (0x7fffffffed14) -- of Size = (4) 

-- ISN: (84358) : S -> 0x(5) at (0x7fffffffecec) -- Size = (4) 

-- ISN: (84360) : L from (0x7fffffffecec) -- of Size = (4) 

-- Sqsh -> ISN (84364)

-- ISN: (84430) : L from (0x7fffffffecec) -- of Size = (4) 

-- ISN: (84140) : S -> 0x(0) at (0x7fffffffecfc) -- Size = (4) 

-- ISN: (84141) : L from (0x7fffffffecec) -- of Size = (4) 

-- ISN: (84154) : L from (0x7fffffffecfc) -- of Size = (4) 

-- ISN: (84146) : L from (0x6bc44c) -- of Size = (4) 

-- ISN: (84150) : L from (0x6bc3c3) -- of Size = (1) 

-- ISN: (84157) : S -> 0x(0) at (0x6bc424) -- Size = (4) 

-- ISN: (84312) : L from (0x6c05e0) -- of Size = (4) 

-- ISN: (84456) : L from (0x7fffffffed00) -- of Size = (8) 

-- ISN: (84459) : L from (0x7fffffffed08) -- of Size = (8) 

-- ISN: (84462) : L from (0x7fffffffed14) -- of Size = (4) 

-- ISN: (84476) : S -> 0x(bd) at (0x7fffffffed08) -- Size = (8) 

-- ISN: (84479) : S -> 0x(20) at (0x7fffffffed00) -- Size = (8) 

-- ISN: (84465) : S -> 0x(6) at (0x7fffffffed14) -- Size = (4) 

-- ISN: (84466) : L from (0x7fffffffed14) -- of Size = (4) 

-- ISN: (84472) : L from (0x7fffffffed14) -- of Size = (4) 

-- ISN: (84482) : S -> 0x(6) at (0x7fffffffecec) -- Size = (4) 

-- ISN: (84484) : L from (0x7fffffffecec) -- of Size = (4) 

-- ISN: (84489) : L from (0x7fffffffecec) -- of Size = (4) 

-- ISN: (84515) : L from (0x7fffffffed00) -- of Size = (8) 

-- ISN: (84518) : L from (0x7fffffffed08) -- of Size = (8) 

-- ISN: (84521) : L from (0x7fffffffed14) -- of Size = (4) 

-- ISN: (84524) : S -> 0x(7) at (0x7fffffffed14) -- Size = (4) 

-- ISN: (84525) : L from (0x7fffffffed14) -- of Size = (4) 

-- ISN: (84313) : S -> 0x(0) at (0x7fffffffecfc) -- Size = (4) 

-- ISN: (84314) : L from (0x7fffffffecec) -- of Size = (4) 

-- ISN: (84327) : L from (0x7fffffffecfc) -- of Size = (4) 

-- ISN: (84319) : L from (0x6bc450) -- of Size = (4) 

-- ISN: (84531) : L from (0x7fffffffed14) -- of Size = (4) 

-- ISN: (84535) : S -> 0x(bd) at (0x7fffffffed08) -- Size = (8) 

-- ISN: (84538) : S -> 0x(20) at (0x7fffffffed00) -- Size = (8) 

-- ISN: (84323) : L from (0x6bc3c4) -- of Size = (1) 

-- ISN: (84541) : S -> 0x(7) at (0x7fffffffecec) -- Size = (4) 

-- ISN: (84543) : L from (0x7fffffffecec) -- of Size = (4) 

-- ISN: (84548) : L from (0x7fffffffecec) -- of Size = (4) 

-- ISN: (84330) : S -> 0x(0) at (0x6bc424) -- Size = (4) 

-- ISN: (84436) : L from (0x6c15e0) -- of Size = (4) 

-- ISN: (84574) : L from (0x7fffffffed00) -- of Size = (8) 

-- ISN: (84577) : L from (0x7fffffffed08) -- of Size = (8) 

-- ISN: (84580) : L from (0x7fffffffed14) -- of Size = (4) 

-- ISN: (84583) : S -> 0x(8) at (0x7fffffffed14) -- Size = (4) 

-- ISN: (84584) : L from (0x7fffffffed14) -- of Size = (4) 

-- ISN: (84437) : S -> 0x(0) at (0x7fffffffecfc) -- Size = (4) 

-- ISN: (84438) : L from (0x7fffffffecec) -- of Size = (4) 

-- ISN: (84451) : L from (0x7fffffffecfc) -- of Size = (4) 

-- ISN: (84443) : L from (0x6bc454) -- of Size = (4) 

-- ISN: (84590) : L from (0x7fffffffed14) -- of Size = (4) 

-- ISN: (84594) : S -> 0x(bd) at (0x7fffffffed08) -- Size = (8) 

-- ISN: (84597) : S -> 0x(20) at (0x7fffffffed00) -- Size = (8) 

-- ISN: (84447) : L from (0x6bc3c5) -- of Size = (1) 

-- ISN: (84600) : S -> 0x(8) at (0x7fffffffecec) -- Size = (4) 

-- ISN: (84602) : L from (0x7fffffffecec) -- of Size = (4) 

-- ISN: (84607) : L from (0x7fffffffecec) -- of Size = (4) 

-- ISN: (84454) : S -> 0x(0) at (0x6bc424) -- Size = (4) 

-- ISN: (84495) : L from (0x6c25e0) -- of Size = (4) 

-- ISN: (84633) : L from (0x7fffffffed00) -- of Size = (8) 

-- ISN: (84636) : L from (0x7fffffffed08) -- of Size = (8) 

-- ISN: (84639) : L from (0x7fffffffed14) -- of Size = (4) 

-- ISN: (84642) : S -> 0x(9) at (0x7fffffffed14) -- Size = (4) 

-- ISN: (84643) : L from (0x7fffffffed14) -- of Size = (4) 

-- ISN: (84496) : S -> 0x(0) at (0x7fffffffecfc) -- Size = (4) 

-- ISN: (84497) : L from (0x7fffffffecec) -- of Size = (4) 

-- ISN: (84510) : L from (0x7fffffffecfc) -- of Size = (4) 

-- ISN: (84502) : L from (0x6bc458) -- of Size = (4) 

-- ISN: (84649) : L from (0x7fffffffed14) -- of Size = (4) 

-- ISN: (84653) : S -> 0x(bd) at (0x7fffffffed08) -- Size = (8) 

-- ISN: (84656) : S -> 0x(20) at (0x7fffffffed00) -- Size = (8) 

-- ISN: (84506) : L from (0x6bc3c6) -- of Size = (1) 

-- ISN: (84659) : S -> 0x(9) at (0x7fffffffecec) -- Size = (4) 

-- ISN: (84661) : L from (0x7fffffffecec) -- of Size = (4) 

-- ISN: (84666) : L from (0x7fffffffecec) -- of Size = (4) 

-- ISN: (84513) : S -> 0x(0) at (0x6bc424) -- Size = (4) 

-- ISN: (84554) : L from (0x6c35e0) -- of Size = (4) 

-- ISN: (84692) : L from (0x7fffffffed00) -- of Size = (8) 

-- ISN: (84695) : L from (0x7fffffffed08) -- of Size = (8) 

-- ISN: (84698) : L from (0x7fffffffed14) -- of Size = (4) 

-- ISN: (84701) : S -> 0x(a) at (0x7fffffffed14) -- Size = (4) 

-- ISN: (84702) : L from (0x7fffffffed14) -- of Size = (4) 

-- ISN: (84555) : S -> 0x(0) at (0x7fffffffecfc) -- Size = (4) 

-- ISN: (84556) : L from (0x7fffffffecec) -- of Size = (4) 

-- ISN: (84569) : L from (0x7fffffffecfc) -- of Size = (4) 

-- ISN: (84561) : L from (0x6bc45c) -- of Size = (4) 

-- ISN: (84708) : L from (0x7fffffffed14) -- of Size = (4) 

-- ISN: (84712) : S -> 0x(bd) at (0x7fffffffed08) -- Size = (8) 

-- ISN: (84715) : S -> 0x(20) at (0x7fffffffed00) -- Size = (8) 

-- ISN: (84565) : L from (0x6bc3c7) -- of Size = (1) 

-- ISN: (84718) : S -> 0x(a) at (0x7fffffffecec) -- Size = (4) 

-- ISN: (84720) : L from (0x7fffffffecec) -- of Size = (4) 

-- ISN: (84725) : L from (0x7fffffffecec) -- of Size = (4) 

-- ISN: (84572) : S -> 0x(0) at (0x6bc424) -- Size = (4) 

-- ISN: (84613) : L from (0x6c45e0) -- of Size = (4) 

-- ISN: (84751) : L from (0x7fffffffed00) -- of Size = (8) 

-- ISN: (84754) : L from (0x7fffffffed08) -- of Size = (8) 

-- ISN: (84757) : L from (0x7fffffffed14) -- of Size = (4) 

-- ISN: (84760) : S -> 0x(b) at (0x7fffffffed14) -- Size = (4) 

-- ISN: (84761) : L from (0x7fffffffed14) -- of Size = (4) 

-- ISN: (84614) : S -> 0x(0) at (0x7fffffffecfc) -- Size = (4) 

-- ISN: (84615) : L from (0x7fffffffecec) -- of Size = (4) 

-- ISN: (84628) : L from (0x7fffffffecfc) -- of Size = (4) 

-- ISN: (84620) : L from (0x6bc460) -- of Size = (4) 

-- ISN: (84767) : L from (0x7fffffffed14) -- of Size = (4) 

-- ISN: (84624) : L from (0x6bc3c8) -- of Size = (1) 

-- ISN: (84771) : S -> 0x(bd) at (0x7fffffffed08) -- Size = (8) 

-- ISN: (84774) : S -> 0x(20) at (0x7fffffffed00) -- Size = (8) 

-- ISN: (84777) : S -> 0x(b) at (0x7fffffffecec) -- Size = (4) 

-- ISN: (84779) : L from (0x7fffffffecec) -- of Size = (4) 

-- ISN: (84784) : L from (0x7fffffffecec) -- of Size = (4) 

-- ISN: (84631) : S -> 0x(0) at (0x6bc424) -- Size = (4) 

-- ISN: (84672) : L from (0x6c55e0) -- of Size = (4) 

-- ISN: (84810) : L from (0x7fffffffed00) -- of Size = (8) 

-- ISN: (84813) : L from (0x7fffffffed08) -- of Size = (8) 

-- ISN: (84816) : L from (0x7fffffffed14) -- of Size = (4) 

-- ISN: (84819) : S -> 0x(c) at (0x7fffffffed14) -- Size = (4) 

-- ISN: (84820) : L from (0x7fffffffed14) -- of Size = (4) 

-- ISN: (84673) : S -> 0x(0) at (0x7fffffffecfc) -- Size = (4) 

-- ISN: (84674) : L from (0x7fffffffecec) -- of Size = (4) 

-- ISN: (84687) : L from (0x7fffffffecfc) -- of Size = (4) 

-- ISN: (84679) : L from (0x6bc464) -- of Size = (4) 

-- ISN: (84826) : L from (0x7fffffffed14) -- of Size = (4) 

-- ISN: (84830) : S -> 0x(bd) at (0x7fffffffed08) -- Size = (8) 

-- ISN: (84833) : S -> 0x(20) at (0x7fffffffed00) -- Size = (8) 

-- ISN: (84683) : L from (0x6bc3c9) -- of Size = (1) 

-- ISN: (84836) : S -> 0x(c) at (0x7fffffffecec) -- Size = (4) 

-- ISN: (84838) : L from (0x7fffffffecec) -- of Size = (4) 

-- ISN: (84843) : L from (0x7fffffffecec) -- of Size = (4) 

-- ISN: (84690) : S -> 0x(0) at (0x6bc424) -- Size = (4) 

-- ISN: (84731) : L from (0x6c65e0) -- of Size = (4) 

-- ISN: (84869) : L from (0x7fffffffed00) -- of Size = (8) 

-- ISN: (84872) : L from (0x7fffffffed08) -- of Size = (8) 

-- ISN: (84875) : L from (0x7fffffffed14) -- of Size = (4) 

-- ISN: (84878) : S -> 0x(d) at (0x7fffffffed14) -- Size = (4) 

-- ISN: (84879) : L from (0x7fffffffed14) -- of Size = (4) 

-- ISN: (84732) : S -> 0x(0) at (0x7fffffffecfc) -- Size = (4) 

-- ISN: (84733) : L from (0x7fffffffecec) -- of Size = (4) 

-- ISN: (84746) : L from (0x7fffffffecfc) -- of Size = (4) 

-- ISN: (84738) : L from (0x6bc468) -- of Size = (4) 

-- ISN: (84885) : L from (0x7fffffffed14) -- of Size = (4) 

-- ISN: (84889) : S -> 0x(bd) at (0x7fffffffed08) -- Size = (8) 

-- ISN: (84742) : L from (0x6bc3ca) -- of Size = (1) 

-- ISN: (84892) : S -> 0x(20) at (0x7fffffffed00) -- Size = (8) 

-- ISN: (84895) : S -> 0x(d) at (0x7fffffffecec) -- Size = (4) 

-- ISN: (84897) : L from (0x7fffffffecec) -- of Size = (4) 

-- ISN: (84902) : L from (0x7fffffffecec) -- of Size = (4) 

-- ISN: (84749) : S -> 0x(0) at (0x6bc424) -- Size = (4) 

-- ISN: (84790) : L from (0x6c75e0) -- of Size = (4) 

-- ISN: (84928) : L from (0x7fffffffed00) -- of Size = (8) 

-- ISN: (84931) : L from (0x7fffffffed08) -- of Size = (8) 

-- ISN: (84934) : L from (0x7fffffffed14) -- of Size = (4) 

-- ISN: (84937) : S -> 0x(e) at (0x7fffffffed14) -- Size = (4) 

-- ISN: (84938) : L from (0x7fffffffed14) -- of Size = (4) 

-- ISN: (84791) : S -> 0x(0) at (0x7fffffffecfc) -- Size = (4) 

-- ISN: (84792) : L from (0x7fffffffecec) -- of Size = (4) 

-- ISN: (84805) : L from (0x7fffffffecfc) -- of Size = (4) 

-- ISN: (84797) : L from (0x6bc46c) -- of Size = (4) 

-- ISN: (84944) : L from (0x7fffffffed14) -- of Size = (4) 

-- ISN: (84948) : S -> 0x(bd) at (0x7fffffffed08) -- Size = (8) 

-- ISN: (84951) : S -> 0x(20) at (0x7fffffffed00) -- Size = (8) 

-- ISN: (84801) : L from (0x6bc3cb) -- of Size = (1) 

-- ISN: (84954) : S -> 0x(e) at (0x7fffffffecec) -- Size = (4) 

-- ISN: (84956) : L from (0x7fffffffecec) -- of Size = (4) 

-- ISN: (84961) : L from (0x7fffffffecec) -- of Size = (4) 

-- ISN: (84808) : S -> 0x(0) at (0x6bc424) -- Size = (4) 

-- ISN: (84849) : L from (0x6c85e0) -- of Size = (4) 

-- ISN: (84987) : L from (0x7fffffffed00) -- of Size = (8) 

-- ISN: (84990) : L from (0x7fffffffed08) -- of Size = (8) 

-- ISN: (84993) : L from (0x7fffffffed14) -- of Size = (4) 

-- ISN: (84996) : S -> 0x(f) at (0x7fffffffed14) -- Size = (4) 

-- ISN: (84997) : L from (0x7fffffffed14) -- of Size = (4) 

-- ISN: (84850) : S -> 0x(0) at (0x7fffffffecfc) -- Size = (4) 

-- ISN: (84851) : L from (0x7fffffffecec) -- of Size = (4) 

-- ISN: (84864) : L from (0x7fffffffecfc) -- of Size = (4) 

-- ISN: (84856) : L from (0x6bc470) -- of Size = (4) 

-- ISN: (85003) : L from (0x7fffffffed14) -- of Size = (4) 

-- ISN: (85007) : S -> 0x(bd) at (0x7fffffffed08) -- Size = (8) 

-- ISN: (85010) : S -> 0x(20) at (0x7fffffffed00) -- Size = (8) 

-- ISN: (84860) : L from (0x6bc3cc) -- of Size = (1) 

-- ISN: (85013) : S -> 0x(f) at (0x7fffffffecec) -- Size = (4) 

-- ISN: (85015) : L from (0x7fffffffecec) -- of Size = (4) 

-- ISN: (85020) : L from (0x7fffffffecec) -- of Size = (4) 

-- ISN: (84867) : S -> 0x(0) at (0x6bc424) -- Size = (4) 

-- ISN: (84908) : L from (0x6c95e0) -- of Size = (4) 

-- ISN: (85046) : L from (0x7fffffffed00) -- of Size = (8) 

-- ISN: (85049) : L from (0x7fffffffed08) -- of Size = (8) 

-- ISN: (85052) : L from (0x7fffffffed14) -- of Size = (4) 

-- ISN: (85055) : S -> 0x(10) at (0x7fffffffed14) -- Size = (4) 

-- ISN: (85056) : L from (0x7fffffffed14) -- of Size = (4) 

-- ISN: (84909) : S -> 0x(0) at (0x7fffffffecfc) -- Size = (4) 

-- ISN: (84910) : L from (0x7fffffffecec) -- of Size = (4) 

-- ISN: (84923) : L from (0x7fffffffecfc) -- of Size = (4) 

-- ISN: (84915) : L from (0x6bc474) -- of Size = (4) 

-- ISN: (85062) : L from (0x7fffffffed14) -- of Size = (4) 

-- ISN: (85066) : S -> 0x(bd) at (0x7fffffffed08) -- Size = (8) 

-- ISN: (85069) : S -> 0x(20) at (0x7fffffffed00) -- Size = (8) 

-- ISN: (84919) : L from (0x6bc3cd) -- of Size = (1) 

-- ISN: (85072) : S -> 0x(10) at (0x7fffffffecec) -- Size = (4) 

-- ISN: (85074) : L from (0x7fffffffecec) -- of Size = (4) 

-- ISN: (85079) : L from (0x7fffffffecec) -- of Size = (4) 

-- ISN: (84926) : S -> 0x(0) at (0x6bc424) -- Size = (4) 

-- ISN: (84967) : L from (0x6ca5e0) -- of Size = (4) 

-- ISN: (85105) : L from (0x7fffffffed00) -- of Size = (8) 

-- ISN: (85108) : L from (0x7fffffffed08) -- of Size = (8) 

-- ISN: (85111) : L from (0x7fffffffed14) -- of Size = (4) 

-- ISN: (85114) : S -> 0x(11) at (0x7fffffffed14) -- Size = (4) 

-- ISN: (85115) : L from (0x7fffffffed14) -- of Size = (4) 

-- ISN: (84968) : S -> 0x(0) at (0x7fffffffecfc) -- Size = (4) 

-- ISN: (84969) : L from (0x7fffffffecec) -- of Size = (4) 

-- ISN: (84982) : L from (0x7fffffffecfc) -- of Size = (4) 

-- ISN: (84974) : L from (0x6bc478) -- of Size = (4) 

-- ISN: (85121) : L from (0x7fffffffed14) -- of Size = (4) 

-- ISN: (85125) : S -> 0x(bd) at (0x7fffffffed08) -- Size = (8) 

-- ISN: (85128) : S -> 0x(20) at (0x7fffffffed00) -- Size = (8) 

-- ISN: (84978) : L from (0x6bc3ce) -- of Size = (1) 

-- ISN: (85131) : S -> 0x(11) at (0x7fffffffecec) -- Size = (4) 

-- ISN: (85133) : L from (0x7fffffffecec) -- of Size = (4) 

-- ISN: (85138) : L from (0x7fffffffecec) -- of Size = (4) 

-- ISN: (84985) : S -> 0x(0) at (0x6bc424) -- Size = (4) 

-- ISN: (85026) : L from (0x6cb5e0) -- of Size = (4) 

-- ISN: (85164) : L from (0x7fffffffed00) -- of Size = (8) 

-- ISN: (85167) : L from (0x7fffffffed08) -- of Size = (8) 

-- ISN: (85170) : L from (0x7fffffffed14) -- of Size = (4) 

-- ISN: (85173) : S -> 0x(12) at (0x7fffffffed14) -- Size = (4) 

-- ISN: (85174) : L from (0x7fffffffed14) -- of Size = (4) 

-- ISN: (85027) : S -> 0x(0) at (0x7fffffffecfc) -- Size = (4) 

-- ISN: (85028) : L from (0x7fffffffecec) -- of Size = (4) 

-- ISN: (85041) : L from (0x7fffffffecfc) -- of Size = (4) 

-- ISN: (85033) : L from (0x6bc47c) -- of Size = (4) 

-- ISN: (85180) : L from (0x7fffffffed14) -- of Size = (4) 

-- ISN: (85184) : S -> 0x(bd) at (0x7fffffffed08) -- Size = (8) 

-- ISN: (85187) : S -> 0x(20) at (0x7fffffffed00) -- Size = (8) 

-- ISN: (85037) : L from (0x6bc3cf) -- of Size = (1) 

-- ISN: (85190) : S -> 0x(12) at (0x7fffffffecec) -- Size = (4) 

-- ISN: (85192) : L from (0x7fffffffecec) -- of Size = (4) 

-- ISN: (85197) : L from (0x7fffffffecec) -- of Size = (4) 

-- ISN: (85044) : S -> 0x(0) at (0x6bc424) -- Size = (4) 

-- ISN: (85085) : L from (0x6cc5e0) -- of Size = (4) 

-- ISN: (85223) : L from (0x7fffffffed00) -- of Size = (8) 

-- ISN: (85226) : L from (0x7fffffffed08) -- of Size = (8) 

-- ISN: (85229) : L from (0x7fffffffed14) -- of Size = (4) 

-- ISN: (85232) : S -> 0x(13) at (0x7fffffffed14) -- Size = (4) 

-- ISN: (85233) : L from (0x7fffffffed14) -- of Size = (4) 

-- ISN: (85086) : S -> 0x(0) at (0x7fffffffecfc) -- Size = (4) 

-- ISN: (85087) : L from (0x7fffffffecec) -- of Size = (4) 

-- ISN: (85100) : L from (0x7fffffffecfc) -- of Size = (4) 

-- ISN: (85092) : L from (0x6bc480) -- of Size = (4) 

-- ISN: (85239) : L from (0x7fffffffed14) -- of Size = (4) 

-- ISN: (85096) : L from (0x6bc3d0) -- of Size = (1) 

-- ISN: (85243) : S -> 0x(bd) at (0x7fffffffed08) -- Size = (8) 

-- ISN: (85246) : S -> 0x(20) at (0x7fffffffed00) -- Size = (8) 

-- ISN: (85249) : S -> 0x(13) at (0x7fffffffecec) -- Size = (4) 

-- ISN: (85251) : L from (0x7fffffffecec) -- of Size = (4) 

-- ISN: (85256) : L from (0x7fffffffecec) -- of Size = (4) 

-- ISN: (85103) : S -> 0x(0) at (0x6bc424) -- Size = (4) 

-- ISN: (85144) : L from (0x6cd5e0) -- of Size = (4) 

-- ISN: (85282) : L from (0x7fffffffed00) -- of Size = (8) 

-- ISN: (85285) : L from (0x7fffffffed08) -- of Size = (8) 

-- ISN: (85288) : L from (0x7fffffffed14) -- of Size = (4) 

-- ISN: (85291) : S -> 0x(14) at (0x7fffffffed14) -- Size = (4) 

-- ISN: (85292) : L from (0x7fffffffed14) -- of Size = (4) 

-- ISN: (85145) : S -> 0x(0) at (0x7fffffffecfc) -- Size = (4) 

-- ISN: (85146) : L from (0x7fffffffecec) -- of Size = (4) 

-- ISN: (85159) : L from (0x7fffffffecfc) -- of Size = (4) 

-- ISN: (85151) : L from (0x6bc484) -- of Size = (4) 

-- ISN: (85298) : L from (0x7fffffffed14) -- of Size = (4) 

-- ISN: (85302) : S -> 0x(bd) at (0x7fffffffed08) -- Size = (8) 

-- ISN: (85305) : S -> 0x(20) at (0x7fffffffed00) -- Size = (8) 

-- ISN: (85155) : L from (0x6bc3d1) -- of Size = (1) 

-- ISN: (85308) : S -> 0x(14) at (0x7fffffffecec) -- Size = (4) 

-- ISN: (85310) : L from (0x7fffffffecec) -- of Size = (4) 

-- ISN: (85315) : L from (0x7fffffffecec) -- of Size = (4) 

-- ISN: (85162) : S -> 0x(0) at (0x6bc424) -- Size = (4) 

-- ISN: (85203) : L from (0x6ce5e0) -- of Size = (4) 

-- ISN: (85341) : L from (0x7fffffffed00) -- of Size = (8) 

-- ISN: (85344) : L from (0x7fffffffed08) -- of Size = (8) 

-- ISN: (85347) : L from (0x7fffffffed14) -- of Size = (4) 

-- ISN: (85350) : S -> 0x(15) at (0x7fffffffed14) -- Size = (4) 

-- ISN: (85351) : L from (0x7fffffffed14) -- of Size = (4) 

-- ISN: (85204) : S -> 0x(0) at (0x7fffffffecfc) -- Size = (4) 

-- ISN: (85205) : L from (0x7fffffffecec) -- of Size = (4) 

-- ISN: (85218) : L from (0x7fffffffecfc) -- of Size = (4) 

-- ISN: (85210) : L from (0x6bc488) -- of Size = (4) 

-- ISN: (85357) : L from (0x7fffffffed14) -- of Size = (4) 

-- ISN: (85361) : S -> 0x(bd) at (0x7fffffffed08) -- Size = (8) 

-- ISN: (85214) : L from (0x6bc3d2) -- of Size = (1) 

-- ISN: (85364) : S -> 0x(20) at (0x7fffffffed00) -- Size = (8) 

-- ISN: (85367) : S -> 0x(15) at (0x7fffffffecec) -- Size = (4) 

-- ISN: (85369) : L from (0x7fffffffecec) -- of Size = (4) 

-- ISN: (85374) : L from (0x7fffffffecec) -- of Size = (4) 

-- ISN: (85221) : S -> 0x(0) at (0x6bc424) -- Size = (4) 

-- ISN: (85262) : L from (0x6cf5e0) -- of Size = (4) 

-- ISN: (85400) : L from (0x7fffffffed00) -- of Size = (8) 

-- ISN: (85403) : L from (0x7fffffffed08) -- of Size = (8) 

-- ISN: (85406) : L from (0x7fffffffed14) -- of Size = (4) 

-- ISN: (85409) : S -> 0x(16) at (0x7fffffffed14) -- Size = (4) 

-- ISN: (85410) : L from (0x7fffffffed14) -- of Size = (4) 

-- ISN: (85263) : S -> 0x(0) at (0x7fffffffecfc) -- Size = (4) 

-- ISN: (85264) : L from (0x7fffffffecec) -- of Size = (4) 

-- ISN: (85277) : L from (0x7fffffffecfc) -- of Size = (4) 

-- ISN: (85269) : L from (0x6bc48c) -- of Size = (4) 

-- ISN: (85416) : L from (0x7fffffffed14) -- of Size = (4) 

-- ISN: (85420) : S -> 0x(bd) at (0x7fffffffed08) -- Size = (8) 

-- ISN: (85423) : S -> 0x(20) at (0x7fffffffed00) -- Size = (8) 

-- ISN: (85273) : L from (0x6bc3d3) -- of Size = (1) 

-- ISN: (85426) : S -> 0x(16) at (0x7fffffffecec) -- Size = (4) 

-- ISN: (85428) : L from (0x7fffffffecec) -- of Size = (4) 

-- ISN: (85433) : L from (0x7fffffffecec) -- of Size = (4) 

-- ISN: (85280) : S -> 0x(0) at (0x6bc424) -- Size = (4) 

-- ISN: (85321) : L from (0x6d05e0) -- of Size = (4) 

-- ISN: (85459) : L from (0x7fffffffed00) -- of Size = (8) 

-- ISN: (85462) : L from (0x7fffffffed08) -- of Size = (8) 

-- ISN: (85465) : L from (0x7fffffffed14) -- of Size = (4) 

-- ISN: (85468) : S -> 0x(17) at (0x7fffffffed14) -- Size = (4) 

-- ISN: (85469) : L from (0x7fffffffed14) -- of Size = (4) 

-- ISN: (85322) : S -> 0x(0) at (0x7fffffffecfc) -- Size = (4) 

-- ISN: (85323) : L from (0x7fffffffecec) -- of Size = (4) 

-- ISN: (85336) : L from (0x7fffffffecfc) -- of Size = (4) 

-- ISN: (85328) : L from (0x6bc490) -- of Size = (4) 

-- ISN: (85475) : L from (0x7fffffffed14) -- of Size = (4) 

-- ISN: (85479) : S -> 0x(bd) at (0x7fffffffed08) -- Size = (8) 

-- ISN: (85482) : S -> 0x(20) at (0x7fffffffed00) -- Size = (8) 

-- ISN: (85332) : L from (0x6bc3d4) -- of Size = (1) 

-- ISN: (85485) : S -> 0x(17) at (0x7fffffffecec) -- Size = (4) 

-- ISN: (85487) : L from (0x7fffffffecec) -- of Size = (4) 

-- ISN: (85492) : L from (0x7fffffffecec) -- of Size = (4) 

-- ISN: (85339) : S -> 0x(0) at (0x6bc424) -- Size = (4) 

-- ISN: (85380) : L from (0x6d15e0) -- of Size = (4) 

-- ISN: (85518) : L from (0x7fffffffed00) -- of Size = (8) 

-- ISN: (85521) : L from (0x7fffffffed08) -- of Size = (8) 

-- ISN: (85524) : L from (0x7fffffffed14) -- of Size = (4) 

-- ISN: (85527) : S -> 0x(18) at (0x7fffffffed14) -- Size = (4) 

-- ISN: (85528) : L from (0x7fffffffed14) -- of Size = (4) 

-- ISN: (85381) : S -> 0x(0) at (0x7fffffffecfc) -- Size = (4) 

-- ISN: (85382) : L from (0x7fffffffecec) -- of Size = (4) 

-- ISN: (85395) : L from (0x7fffffffecfc) -- of Size = (4) 

-- ISN: (85387) : L from (0x6bc494) -- of Size = (4) 

-- ISN: (85534) : L from (0x7fffffffed14) -- of Size = (4) 

-- ISN: (85538) : S -> 0x(bd) at (0x7fffffffed08) -- Size = (8) 

-- ISN: (85541) : S -> 0x(20) at (0x7fffffffed00) -- Size = (8) 

-- ISN: (85391) : L from (0x6bc3d5) -- of Size = (1) 

-- ISN: (85544) : S -> 0x(18) at (0x7fffffffecec) -- Size = (4) 

-- ISN: (85546) : L from (0x7fffffffecec) -- of Size = (4) 

-- ISN: (85551) : L from (0x7fffffffecec) -- of Size = (4) 

-- ISN: (85398) : S -> 0x(0) at (0x6bc424) -- Size = (4) 

-- ISN: (85439) : L from (0x6d25e0) -- of Size = (4) 

-- ISN: (85577) : L from (0x7fffffffed00) -- of Size = (8) 

-- ISN: (85580) : L from (0x7fffffffed08) -- of Size = (8) 

-- ISN: (85583) : L from (0x7fffffffed14) -- of Size = (4) 

-- ISN: (85586) : S -> 0x(19) at (0x7fffffffed14) -- Size = (4) 

-- ISN: (85587) : L from (0x7fffffffed14) -- of Size = (4) 

-- ISN: (85440) : S -> 0x(0) at (0x7fffffffecfc) -- Size = (4) 

-- ISN: (85441) : L from (0x7fffffffecec) -- of Size = (4) 

-- ISN: (85454) : L from (0x7fffffffecfc) -- of Size = (4) 

-- ISN: (85446) : L from (0x6bc498) -- of Size = (4) 

-- ISN: (85593) : L from (0x7fffffffed14) -- of Size = (4) 

-- ISN: (85597) : S -> 0x(bd) at (0x7fffffffed08) -- Size = (8) 

-- ISN: (85600) : S -> 0x(20) at (0x7fffffffed00) -- Size = (8) 

-- ISN: (85450) : L from (0x6bc3d6) -- of Size = (1) 

-- ISN: (85603) : S -> 0x(19) at (0x7fffffffecec) -- Size = (4) 

-- ISN: (85605) : L from (0x7fffffffecec) -- of Size = (4) 

-- ISN: (85610) : L from (0x7fffffffecec) -- of Size = (4) 

-- ISN: (85457) : S -> 0x(0) at (0x6bc424) -- Size = (4) 

-- ISN: (85498) : L from (0x6d35e0) -- of Size = (4) 

-- ISN: (85636) : L from (0x7fffffffed00) -- of Size = (8) 

-- ISN: (85639) : L from (0x7fffffffed08) -- of Size = (8) 

-- ISN: (85642) : L from (0x7fffffffed14) -- of Size = (4) 

-- ISN: (85645) : S -> 0x(1a) at (0x7fffffffed14) -- Size = (4) 

-- ISN: (85646) : L from (0x7fffffffed14) -- of Size = (4) 

-- ISN: (85499) : S -> 0x(0) at (0x7fffffffecfc) -- Size = (4) 

-- ISN: (85500) : L from (0x7fffffffecec) -- of Size = (4) 

-- ISN: (85513) : L from (0x7fffffffecfc) -- of Size = (4) 

-- ISN: (85505) : L from (0x6bc49c) -- of Size = (4) 

-- ISN: (85652) : L from (0x7fffffffed14) -- of Size = (4) 

-- ISN: (85656) : S -> 0x(bd) at (0x7fffffffed08) -- Size = (8) 

-- ISN: (85659) : S -> 0x(20) at (0x7fffffffed00) -- Size = (8) 

-- ISN: (85509) : L from (0x6bc3d7) -- of Size = (1) 

-- ISN: (85662) : S -> 0x(1a) at (0x7fffffffecec) -- Size = (4) 

-- ISN: (85664) : L from (0x7fffffffecec) -- of Size = (4) 

-- ISN: (85669) : L from (0x7fffffffecec) -- of Size = (4) 

-- ISN: (85516) : S -> 0x(0) at (0x6bc424) -- Size = (4) 

-- ISN: (85557) : L from (0x6d45e0) -- of Size = (4) 

-- ISN: (85695) : L from (0x7fffffffed00) -- of Size = (8) 

-- ISN: (85698) : L from (0x7fffffffed08) -- of Size = (8) 

-- ISN: (85701) : L from (0x7fffffffed14) -- of Size = (4) 

-- ISN: (85704) : S -> 0x(1b) at (0x7fffffffed14) -- Size = (4) 

-- ISN: (85705) : L from (0x7fffffffed14) -- of Size = (4) 

-- ISN: (85558) : S -> 0x(0) at (0x7fffffffecfc) -- Size = (4) 

-- ISN: (85559) : L from (0x7fffffffecec) -- of Size = (4) 

-- ISN: (85572) : L from (0x7fffffffecfc) -- of Size = (4) 

-- ISN: (85564) : L from (0x6bc4a0) -- of Size = (4) 

-- ISN: (85711) : L from (0x7fffffffed14) -- of Size = (4) 

-- ISN: (85568) : L from (0x6bc3d8) -- of Size = (1) 

-- ISN: (85715) : S -> 0x(bd) at (0x7fffffffed08) -- Size = (8) 

-- ISN: (85718) : S -> 0x(20) at (0x7fffffffed00) -- Size = (8) 

-- ISN: (85721) : S -> 0x(1b) at (0x7fffffffecec) -- Size = (4) 

-- ISN: (85723) : L from (0x7fffffffecec) -- of Size = (4) 

-- ISN: (85728) : L from (0x7fffffffecec) -- of Size = (4) 

-- ISN: (85575) : S -> 0x(0) at (0x6bc424) -- Size = (4) 

-- ISN: (85616) : L from (0x6d55e0) -- of Size = (4) 

-- ISN: (85754) : L from (0x7fffffffed00) -- of Size = (8) 

-- ISN: (85757) : L from (0x7fffffffed08) -- of Size = (8) 

-- ISN: (85760) : L from (0x7fffffffed14) -- of Size = (4) 

-- ISN: (85763) : S -> 0x(1c) at (0x7fffffffed14) -- Size = (4) 

-- ISN: (85764) : L from (0x7fffffffed14) -- of Size = (4) 

-- ISN: (85617) : S -> 0x(0) at (0x7fffffffecfc) -- Size = (4) 

-- ISN: (85618) : L from (0x7fffffffecec) -- of Size = (4) 

-- ISN: (85631) : L from (0x7fffffffecfc) -- of Size = (4) 

-- ISN: (85623) : L from (0x6bc4a4) -- of Size = (4) 

-- ISN: (85770) : L from (0x7fffffffed14) -- of Size = (4) 

-- ISN: (85774) : S -> 0x(bd) at (0x7fffffffed08) -- Size = (8) 

-- ISN: (85777) : S -> 0x(20) at (0x7fffffffed00) -- Size = (8) 

-- ISN: (85627) : L from (0x6bc3d9) -- of Size = (1) 

-- ISN: (85780) : S -> 0x(1c) at (0x7fffffffecec) -- Size = (4) 

-- ISN: (85782) : L from (0x7fffffffecec) -- of Size = (4) 

-- ISN: (85787) : L from (0x7fffffffecec) -- of Size = (4) 

-- ISN: (85634) : S -> 0x(0) at (0x6bc424) -- Size = (4) 

-- ISN: (85675) : L from (0x6d65e0) -- of Size = (4) 

-- ISN: (85813) : L from (0x7fffffffed00) -- of Size = (8) 

-- ISN: (85816) : L from (0x7fffffffed08) -- of Size = (8) 

-- ISN: (85819) : L from (0x7fffffffed14) -- of Size = (4) 

-- ISN: (85822) : S -> 0x(1d) at (0x7fffffffed14) -- Size = (4) 

-- ISN: (85823) : L from (0x7fffffffed14) -- of Size = (4) 

-- ISN: (85676) : S -> 0x(0) at (0x7fffffffecfc) -- Size = (4) 

-- ISN: (85677) : L from (0x7fffffffecec) -- of Size = (4) 

-- ISN: (85690) : L from (0x7fffffffecfc) -- of Size = (4) 

-- ISN: (85682) : L from (0x6bc4a8) -- of Size = (4) 

-- ISN: (85829) : L from (0x7fffffffed14) -- of Size = (4) 

-- ISN: (85833) : S -> 0x(bd) at (0x7fffffffed08) -- Size = (8) 

-- ISN: (85686) : L from (0x6bc3da) -- of Size = (1) 

-- ISN: (85836) : S -> 0x(20) at (0x7fffffffed00) -- Size = (8) 

-- ISN: (85839) : S -> 0x(1d) at (0x7fffffffecec) -- Size = (4) 

-- ISN: (85841) : L from (0x7fffffffecec) -- of Size = (4) 

-- ISN: (85846) : L from (0x7fffffffecec) -- of Size = (4) 

-- ISN: (85693) : S -> 0x(0) at (0x6bc424) -- Size = (4) 

-- ISN: (85734) : L from (0x6d75e0) -- of Size = (4) 

-- ISN: (85872) : L from (0x7fffffffed00) -- of Size = (8) 

-- ISN: (85875) : L from (0x7fffffffed08) -- of Size = (8) 

-- ISN: (85878) : L from (0x7fffffffed14) -- of Size = (4) 

-- ISN: (85881) : S -> 0x(1e) at (0x7fffffffed14) -- Size = (4) 

-- ISN: (85882) : L from (0x7fffffffed14) -- of Size = (4) 

-- ISN: (85735) : S -> 0x(0) at (0x7fffffffecfc) -- Size = (4) 

-- ISN: (85736) : L from (0x7fffffffecec) -- of Size = (4) 

-- ISN: (85749) : L from (0x7fffffffecfc) -- of Size = (4) 

-- ISN: (85741) : L from (0x6bc4ac) -- of Size = (4) 

-- ISN: (85888) : L from (0x7fffffffed14) -- of Size = (4) 

-- ISN: (85892) : S -> 0x(bd) at (0x7fffffffed08) -- Size = (8) 

-- ISN: (85895) : S -> 0x(20) at (0x7fffffffed00) -- Size = (8) 

-- ISN: (85745) : L from (0x6bc3db) -- of Size = (1) 

-- ISN: (85898) : S -> 0x(1e) at (0x7fffffffecec) -- Size = (4) 

-- ISN: (85900) : L from (0x7fffffffecec) -- of Size = (4) 

-- ISN: (85905) : L from (0x7fffffffecec) -- of Size = (4) 

-- ISN: (85752) : S -> 0x(0) at (0x6bc424) -- Size = (4) 

-- ISN: (85793) : L from (0x6d85e0) -- of Size = (4) 

-- ISN: (85931) : L from (0x7fffffffed00) -- of Size = (8) 

-- ISN: (85934) : L from (0x7fffffffed08) -- of Size = (8) 

-- ISN: (85937) : L from (0x7fffffffed14) -- of Size = (4) 

-- ISN: (85940) : S -> 0x(1f) at (0x7fffffffed14) -- Size = (4) 

-- ISN: (85941) : L from (0x7fffffffed14) -- of Size = (4) 

-- ISN: (85794) : S -> 0x(0) at (0x7fffffffecfc) -- Size = (4) 

-- ISN: (85795) : L from (0x7fffffffecec) -- of Size = (4) 

-- ISN: (85808) : L from (0x7fffffffecfc) -- of Size = (4) 

-- ISN: (85800) : L from (0x6bc4b0) -- of Size = (4) 

-- ISN: (85947) : L from (0x7fffffffed14) -- of Size = (4) 

-- ISN: (85951) : S -> 0x(bd) at (0x7fffffffed08) -- Size = (8) 

-- ISN: (85954) : S -> 0x(20) at (0x7fffffffed00) -- Size = (8) 

-- ISN: (85804) : L from (0x6bc3dc) -- of Size = (1) 

-- ISN: (85957) : S -> 0x(1f) at (0x7fffffffecec) -- Size = (4) 

-- ISN: (85959) : L from (0x7fffffffecec) -- of Size = (4) 

-- ISN: (85964) : L from (0x7fffffffecec) -- of Size = (4) 

-- ISN: (85811) : S -> 0x(0) at (0x6bc424) -- Size = (4) 

-- ISN: (85852) : L from (0x6d95e0) -- of Size = (4) 

-- ISN: (85990) : L from (0x7fffffffed00) -- of Size = (8) 

-- ISN: (85993) : L from (0x7fffffffed08) -- of Size = (8) 

-- ISN: (85996) : L from (0x7fffffffed14) -- of Size = (4) 

-- ISN: (85999) : S -> 0x(20) at (0x7fffffffed14) -- Size = (4) 

-- ISN: (86000) : L from (0x7fffffffed14) -- of Size = (4) 

-- ISN: (85853) : S -> 0x(0) at (0x7fffffffecfc) -- Size = (4) 

-- ISN: (85854) : L from (0x7fffffffecec) -- of Size = (4) 

-- ISN: (85867) : L from (0x7fffffffecfc) -- of Size = (4) 

-- ISN: (85859) : L from (0x6bc4b4) -- of Size = (4) 

-- ISN: (86006) : L from (0x7fffffffed14) -- of Size = (4) 

-- ISN: (86010) : S -> 0x(bd) at (0x7fffffffed08) -- Size = (8) 

-- ISN: (86013) : S -> 0x(20) at (0x7fffffffed00) -- Size = (8) 

-- ISN: (85863) : L from (0x6bc3dd) -- of Size = (1) 

-- ISN: (86016) : S -> 0x(20) at (0x7fffffffecec) -- Size = (4) 

-- ISN: (86018) : L from (0x7fffffffecec) -- of Size = (4) 

-- ISN: (86023) : L from (0x7fffffffecec) -- of Size = (4) 

-- ISN: (85870) : S -> 0x(0) at (0x6bc424) -- Size = (4) 

-- ISN: (85911) : L from (0x6da5e0) -- of Size = (4) 

-- ISN: (86049) : L from (0x7fffffffed00) -- of Size = (8) 

-- ISN: (86052) : L from (0x7fffffffed08) -- of Size = (8) 

-- ISN: (86055) : L from (0x7fffffffed14) -- of Size = (4) 

-- ISN: (86058) : S -> 0x(21) at (0x7fffffffed14) -- Size = (4) 

-- ISN: (86059) : L from (0x7fffffffed14) -- of Size = (4) 

-- ISN: (85912) : S -> 0x(0) at (0x7fffffffecfc) -- Size = (4) 

-- ISN: (85913) : L from (0x7fffffffecec) -- of Size = (4) 

-- ISN: (85926) : L from (0x7fffffffecfc) -- of Size = (4) 

-- ISN: (85918) : L from (0x6bc4b8) -- of Size = (4) 

-- ISN: (86065) : L from (0x7fffffffed14) -- of Size = (4) 

-- ISN: (86069) : S -> 0x(bd) at (0x7fffffffed08) -- Size = (8) 

-- ISN: (86072) : S -> 0x(20) at (0x7fffffffed00) -- Size = (8) 

-- ISN: (85922) : L from (0x6bc3de) -- of Size = (1) 

[...]

-- ISN: (89097) : L from (0x7105e0) -- of Size = (4) 

-- ISN: (89235) : L from (0x7fffffffed00) -- of Size = (8) 

-- ISN: (89238) : L from (0x7fffffffed08) -- of Size = (8) 

-- ISN: (89241) : L from (0x7fffffffed14) -- of Size = (4) 

-- ISN: (89244) : S -> 0x(57) at (0x7fffffffed14) -- Size = (4) 

-- ISN: (89245) : L from (0x7fffffffed14) -- of Size = (4) 

-- ISN: (89098) : S -> 0x(0) at (0x7fffffffecfc) -- Size = (4) 

-- ISN: (89099) : L from (0x7fffffffecec) -- of Size = (4) 

-- ISN: (89112) : L from (0x7fffffffecfc) -- of Size = (4) 

-- ISN: (89104) : L from (0x6bc590) -- of Size = (4) 

-- ISN: (89251) : L from (0x7fffffffed14) -- of Size = (4) 

-- ISN: (89255) : S -> 0x(bd) at (0x7fffffffed08) -- Size = (8) 

-- ISN: (89258) : S -> 0x(20) at (0x7fffffffed00) -- Size = (8) 

-- ISN: (89108) : L from (0x6bc414) -- of Size = (1) 

-- ISN: (89261) : S -> 0x(57) at (0x7fffffffecec) -- Size = (4) 

-- ISN: (89263) : L from (0x7fffffffecec) -- of Size = (4) 

-- ISN: (89268) : L from (0x7fffffffecec) -- of Size = (4) 

-- ISN: (89115) : S -> 0x(0) at (0x6bc424) -- Size = (4) 

-- ISN: (89156) : L from (0x7115e0) -- of Size = (4) 

-- ISN: (89294) : L from (0x7fffffffed00) -- of Size = (8) 

-- ISN: (89297) : L from (0x7fffffffed08) -- of Size = (8) 

-- ISN: (89300) : L from (0x7fffffffed14) -- of Size = (4) 

-- ISN: (89303) : S -> 0x(58) at (0x7fffffffed14) -- Size = (4) 

-- ISN: (89304) : L from (0x7fffffffed14) -- of Size = (4) 

-- ISN: (89157) : S -> 0x(0) at (0x7fffffffecfc) -- Size = (4) 

-- ISN: (89158) : L from (0x7fffffffecec) -- of Size = (4) 

-- ISN: (89171) : L from (0x7fffffffecfc) -- of Size = (4) 

-- ISN: (89163) : L from (0x6bc594) -- of Size = (4) 

-- ISN: (89310) : L from (0x7fffffffed14) -- of Size = (4) 

-- ISN: (89314) : S -> 0x(bd) at (0x7fffffffed08) -- Size = (8) 

-- ISN: (89317) : S -> 0x(20) at (0x7fffffffed00) -- Size = (8) 

-- ISN: (89167) : L from (0x6bc415) -- of Size = (1) 

-- ISN: (89320) : S -> 0x(58) at (0x7fffffffecec) -- Size = (4) 

-- ISN: (89322) : L from (0x7fffffffecec) -- of Size = (4) 

-- ISN: (89327) : L from (0x7fffffffecec) -- of Size = (4) 

-- ISN: (89174) : S -> 0x(0) at (0x6bc424) -- Size = (4) 

-- ISN: (89215) : L from (0x7125e0) -- of Size = (4) 

-- ISN: (89353) : L from (0x7fffffffed00) -- of Size = (8) 

-- ISN: (89356) : L from (0x7fffffffed08) -- of Size = (8) 

-- ISN: (89359) : L from (0x7fffffffed14) -- of Size = (4) 

-- ISN: (89362) : S -> 0x(59) at (0x7fffffffed14) -- Size = (4) 

-- ISN: (89363) : L from (0x7fffffffed14) -- of Size = (4) 

-- ISN: (89216) : S -> 0x(0) at (0x7fffffffecfc) -- Size = (4) 

-- ISN: (89217) : L from (0x7fffffffecec) -- of Size = (4) 

-- ISN: (89230) : L from (0x7fffffffecfc) -- of Size = (4) 

-- ISN: (89222) : L from (0x6bc598) -- of Size = (4) 

-- ISN: (89369) : L from (0x7fffffffed14) -- of Size = (4) 

-- ISN: (89373) : S -> 0x(bd) at (0x7fffffffed08) -- Size = (8) 

-- ISN: (89376) : S -> 0x(20) at (0x7fffffffed00) -- Size = (8) 

-- ISN: (89226) : L from (0x6bc416) -- of Size = (1) 

-- ISN: (89379) : S -> 0x(59) at (0x7fffffffecec) -- Size = (4) 

-- ISN: (89381) : L from (0x7fffffffecec) -- of Size = (4) 

-- ISN: (89386) : L from (0x7fffffffecec) -- of Size = (4) 

-- ISN: (89233) : S -> 0x(0) at (0x6bc424) -- Size = (4) 

-- ISN: (89274) : L from (0x7135e0) -- of Size = (4) 

-- ISN: (89412) : L from (0x7fffffffed00) -- of Size = (8) 

-- ISN: (89415) : L from (0x7fffffffed08) -- of Size = (8) 

-- ISN: (89418) : L from (0x7fffffffed14) -- of Size = (4) 

-- ISN: (89421) : S -> 0x(5a) at (0x7fffffffed14) -- Size = (4) 

-- ISN: (89422) : L from (0x7fffffffed14) -- of Size = (4) 

-- ISN: (89275) : S -> 0x(0) at (0x7fffffffecfc) -- Size = (4) 

-- ISN: (89276) : L from (0x7fffffffecec) -- of Size = (4) 

-- ISN: (89289) : L from (0x7fffffffecfc) -- of Size = (4) 

-- ISN: (89281) : L from (0x6bc59c) -- of Size = (4) 

-- ISN: (89428) : L from (0x7fffffffed14) -- of Size = (4) 

-- ISN: (89432) : S -> 0x(bd) at (0x7fffffffed08) -- Size = (8) 

-- ISN: (89435) : S -> 0x(20) at (0x7fffffffed00) -- Size = (8) 

-- ISN: (89285) : L from (0x6bc417) -- of Size = (1) 

-- ISN: (89438) : S -> 0x(5a) at (0x7fffffffecec) -- Size = (4) 

-- ISN: (89440) : L from (0x7fffffffecec) -- of Size = (4) 

-- ISN: (89445) : L from (0x7fffffffecec) -- of Size = (4) 

-- ISN: (89292) : S -> 0x(0) at (0x6bc424) -- Size = (4) 

-- ISN: (89333) : L from (0x7145e0) -- of Size = (4) 

-- ISN: (89471) : L from (0x7fffffffed00) -- of Size = (8) 

-- ISN: (89474) : L from (0x7fffffffed08) -- of Size = (8) 

-- ISN: (89477) : L from (0x7fffffffed14) -- of Size = (4) 

-- ISN: (89480) : S -> 0x(5b) at (0x7fffffffed14) -- Size = (4) 

-- ISN: (89481) : L from (0x7fffffffed14) -- of Size = (4) 

-- ISN: (89334) : S -> 0x(0) at (0x7fffffffecfc) -- Size = (4) 

-- ISN: (89335) : L from (0x7fffffffecec) -- of Size = (4) 

-- ISN: (89348) : L from (0x7fffffffecfc) -- of Size = (4) 

-- ISN: (89340) : L from (0x6bc5a0) -- of Size = (4) 

-- ISN: (89487) : L from (0x7fffffffed14) -- of Size = (4) 

-- ISN: (89344) : L from (0x6bc418) -- of Size = (1) 

-- ISN: (89491) : S -> 0x(bd) at (0x7fffffffed08) -- Size = (8) 

-- ISN: (89494) : S -> 0x(20) at (0x7fffffffed00) -- Size = (8) 

-- ISN: (89497) : S -> 0x(5b) at (0x7fffffffecec) -- Size = (4) 

-- ISN: (89499) : L from (0x7fffffffecec) -- of Size = (4) 

-- ISN: (89504) : L from (0x7fffffffecec) -- of Size = (4) 

-- ISN: (89351) : S -> 0x(0) at (0x6bc424) -- Size = (4) 

-- ISN: (89392) : L from (0x7155e0) -- of Size = (4) 

-- ISN: (89530) : L from (0x7fffffffed00) -- of Size = (8) 

-- ISN: (89533) : L from (0x7fffffffed08) -- of Size = (8) 

-- ISN: (89536) : L from (0x7fffffffed14) -- of Size = (4) 

-- ISN: (89539) : S -> 0x(5c) at (0x7fffffffed14) -- Size = (4) 

-- ISN: (89540) : L from (0x7fffffffed14) -- of Size = (4) 

-- ISN: (89393) : S -> 0x(0) at (0x7fffffffecfc) -- Size = (4) 

-- ISN: (89394) : L from (0x7fffffffecec) -- of Size = (4) 

-- ISN: (89407) : L from (0x7fffffffecfc) -- of Size = (4) 

-- ISN: (89399) : L from (0x6bc5a4) -- of Size = (4) 

-- ISN: (89546) : L from (0x7fffffffed14) -- of Size = (4) 

-- ISN: (89550) : S -> 0x(bd) at (0x7fffffffed08) -- Size = (8) 

-- ISN: (89553) : S -> 0x(20) at (0x7fffffffed00) -- Size = (8) 

-- ISN: (89403) : L from (0x6bc419) -- of Size = (1) 

-- ISN: (89556) : S -> 0x(5c) at (0x7fffffffecec) -- Size = (4) 

-- ISN: (89558) : L from (0x7fffffffecec) -- of Size = (4) 

-- ISN: (89563) : L from (0x7fffffffecec) -- of Size = (4) 

-- ISN: (89410) : S -> 0x(0) at (0x6bc424) -- Size = (4) 

-- ISN: (89451) : L from (0x7165e0) -- of Size = (4) 

-- ISN: (89589) : L from (0x7fffffffed00) -- of Size = (8) 

-- ISN: (89592) : L from (0x7fffffffed08) -- of Size = (8) 

-- ISN: (89595) : L from (0x7fffffffed14) -- of Size = (4) 

-- ISN: (89598) : S -> 0x(5d) at (0x7fffffffed14) -- Size = (4) 

-- ISN: (89599) : L from (0x7fffffffed14) -- of Size = (4) 

-- ISN: (89452) : S -> 0x(0) at (0x7fffffffecfc) -- Size = (4) 

-- ISN: (89453) : L from (0x7fffffffecec) -- of Size = (4) 

-- ISN: (89466) : L from (0x7fffffffecfc) -- of Size = (4) 

-- ISN: (89458) : L from (0x6bc5a8) -- of Size = (4) 

-- ISN: (89605) : L from (0x7fffffffed14) -- of Size = (4) 

-- ISN: (89609) : S -> 0x(bd) at (0x7fffffffed08) -- Size = (8) 

-- ISN: (89462) : L from (0x6bc41a) -- of Size = (1) 

-- ISN: (89612) : S -> 0x(20) at (0x7fffffffed00) -- Size = (8) 

-- ISN: (89615) : S -> 0x(5d) at (0x7fffffffecec) -- Size = (4) 

-- ISN: (89617) : L from (0x7fffffffecec) -- of Size = (4) 

-- ISN: (89622) : L from (0x7fffffffecec) -- of Size = (4) 

-- ISN: (89469) : S -> 0x(0) at (0x6bc424) -- Size = (4) 

-- ISN: (89510) : L from (0x7175e0) -- of Size = (4) 

-- ISN: (89648) : L from (0x7fffffffed00) -- of Size = (8) 

-- ISN: (89651) : L from (0x7fffffffed08) -- of Size = (8) 

-- ISN: (89654) : L from (0x7fffffffed14) -- of Size = (4) 

-- ISN: (89657) : S -> 0x(5e) at (0x7fffffffed14) -- Size = (4) 

-- ISN: (89658) : L from (0x7fffffffed14) -- of Size = (4) 

-- ISN: (89511) : S -> 0x(0) at (0x7fffffffecfc) -- Size = (4) 

-- ISN: (89512) : L from (0x7fffffffecec) -- of Size = (4) 

-- ISN: (89525) : L from (0x7fffffffecfc) -- of Size = (4) 

-- ISN: (89517) : L from (0x6bc5ac) -- of Size = (4) 

-- ISN: (89664) : L from (0x7fffffffed14) -- of Size = (4) 

-- ISN: (89668) : S -> 0x(bd) at (0x7fffffffed08) -- Size = (8) 

-- ISN: (89671) : S -> 0x(20) at (0x7fffffffed00) -- Size = (8) 

-- ISN: (89521) : L from (0x6bc41b) -- of Size = (1) 

-- ISN: (89674) : S -> 0x(5e) at (0x7fffffffecec) -- Size = (4) 

-- ISN: (89676) : L from (0x7fffffffecec) -- of Size = (4) 

-- ISN: (89681) : L from (0x7fffffffecec) -- of Size = (4) 

-- ISN: (89528) : S -> 0x(0) at (0x6bc424) -- Size = (4) 

-- ISN: (89569) : L from (0x7185e0) -- of Size = (4) 

-- ISN: (89707) : L from (0x7fffffffed00) -- of Size = (8) 

-- ISN: (89710) : L from (0x7fffffffed08) -- of Size = (8) 

-- ISN: (89713) : L from (0x7fffffffed14) -- of Size = (4) 

-- ISN: (89716) : S -> 0x(5f) at (0x7fffffffed14) -- Size = (4) 

-- ISN: (89717) : L from (0x7fffffffed14) -- of Size = (4) 

-- ISN: (89570) : S -> 0x(0) at (0x7fffffffecfc) -- Size = (4) 

-- ISN: (89571) : L from (0x7fffffffecec) -- of Size = (4) 

-- ISN: (89584) : L from (0x7fffffffecfc) -- of Size = (4) 

-- ISN: (89576) : L from (0x6bc5b0) -- of Size = (4) 

-- ISN: (89723) : L from (0x7fffffffed14) -- of Size = (4) 

-- ISN: (89727) : S -> 0x(bd) at (0x7fffffffed08) -- Size = (8) 

-- ISN: (89730) : S -> 0x(20) at (0x7fffffffed00) -- Size = (8) 

-- ISN: (89580) : L from (0x6bc41c) -- of Size = (1) 

-- ISN: (89733) : S -> 0x(5f) at (0x7fffffffecec) -- Size = (4) 

-- ISN: (89735) : L from (0x7fffffffecec) -- of Size = (4) 

-- ISN: (89740) : L from (0x7fffffffecec) -- of Size = (4) 

-- ISN: (89587) : S -> 0x(0) at (0x6bc424) -- Size = (4) 

-- ISN: (89628) : L from (0x7195e0) -- of Size = (4) 

-- ISN: (89766) : L from (0x7fffffffed00) -- of Size = (8) 

-- ISN: (89769) : L from (0x7fffffffed08) -- of Size = (8) 

-- ISN: (89772) : L from (0x7fffffffed14) -- of Size = (4) 

-- ISN: (89775) : S -> 0x(60) at (0x7fffffffed14) -- Size = (4) 

-- ISN: (89776) : L from (0x7fffffffed14) -- of Size = (4) 

-- ISN: (89629) : S -> 0x(0) at (0x7fffffffecfc) -- Size = (4) 

-- ISN: (89630) : L from (0x7fffffffecec) -- of Size = (4) 

-- ISN: (89643) : L from (0x7fffffffecfc) -- of Size = (4) 

-- ISN: (89635) : L from (0x6bc5b4) -- of Size = (4) 

-- ISN: (89782) : L from (0x7fffffffed14) -- of Size = (4) 

-- ISN: (89786) : S -> 0x(bd) at (0x7fffffffed08) -- Size = (8) 

-- ISN: (89789) : S -> 0x(20) at (0x7fffffffed00) -- Size = (8) 

-- ISN: (89639) : L from (0x6bc41d) -- of Size = (1) 

-- ISN: (89792) : S -> 0x(60) at (0x7fffffffecec) -- Size = (4) 

-- ISN: (89794) : L from (0x7fffffffecec) -- of Size = (4) 

-- ISN: (89799) : L from (0x7fffffffecec) -- of Size = (4) 

-- ISN: (89646) : S -> 0x(0) at (0x6bc424) -- Size = (4) 

-- ISN: (89687) : L from (0x71a5e0) -- of Size = (4) 

-- ISN: (89825) : L from (0x7fffffffed00) -- of Size = (8) 

-- ISN: (89828) : L from (0x7fffffffed08) -- of Size = (8) 

-- ISN: (89831) : L from (0x7fffffffed14) -- of Size = (4) 

-- ISN: (89834) : S -> 0x(61) at (0x7fffffffed14) -- Size = (4) 

-- ISN: (89835) : L from (0x7fffffffed14) -- of Size = (4) 

-- ISN: (89688) : S -> 0x(0) at (0x7fffffffecfc) -- Size = (4) 

-- ISN: (89689) : L from (0x7fffffffecec) -- of Size = (4) 

-- ISN: (89702) : L from (0x7fffffffecfc) -- of Size = (4) 

-- ISN: (89694) : L from (0x6bc5b8) -- of Size = (4) 

-- ISN: (89841) : L from (0x7fffffffed14) -- of Size = (4) 

-- ISN: (89845) : S -> 0x(bd) at (0x7fffffffed08) -- Size = (8) 

-- ISN: (89848) : S -> 0x(20) at (0x7fffffffed00) -- Size = (8) 

-- ISN: (89698) : L from (0x6bc41e) -- of Size = (1) 

-- ISN: (89851) : S -> 0x(61) at (0x7fffffffecec) -- Size = (4) 

-- ISN: (89853) : L from (0x7fffffffecec) -- of Size = (4) 

-- ISN: (89858) : L from (0x7fffffffecec) -- of Size = (4) 

-- ISN: (89705) : S -> 0x(0) at (0x6bc424) -- Size = (4) 

-- ISN: (89746) : L from (0x71b5e0) -- of Size = (4) 

-- ISN: (89884) : L from (0x7fffffffed00) -- of Size = (8) 

-- ISN: (89887) : L from (0x7fffffffed08) -- of Size = (8) 

-- ISN: (89890) : L from (0x7fffffffed14) -- of Size = (4) 

-- ISN: (89893) : S -> 0x(62) at (0x7fffffffed14) -- Size = (4) 

-- ISN: (89894) : L from (0x7fffffffed14) -- of Size = (4) 

-- ISN: (89747) : S -> 0x(0) at (0x7fffffffecfc) -- Size = (4) 

-- ISN: (89748) : L from (0x7fffffffecec) -- of Size = (4) 

-- ISN: (89761) : L from (0x7fffffffecfc) -- of Size = (4) 

-- ISN: (89753) : L from (0x6bc5bc) -- of Size = (4) 

-- ISN: (89900) : L from (0x7fffffffed14) -- of Size = (4) 

-- ISN: (89904) : S -> 0x(bd) at (0x7fffffffed08) -- Size = (8) 

-- ISN: (89907) : S -> 0x(20) at (0x7fffffffed00) -- Size = (8) 

-- ISN: (89757) : L from (0x6bc41f) -- of Size = (1) 

-- ISN: (89910) : S -> 0x(62) at (0x7fffffffecec) -- Size = (4) 

-- ISN: (89912) : L from (0x7fffffffecec) -- of Size = (4) 

-- ISN: (89917) : L from (0x7fffffffecec) -- of Size = (4) 

-- ISN: (89764) : S -> 0x(0) at (0x6bc424) -- Size = (4) 

-- ISN: (89805) : L from (0x71c5e0) -- of Size = (4) 

-- ISN: (89943) : L from (0x7fffffffed00) -- of Size = (8) 

-- ISN: (89946) : L from (0x7fffffffed08) -- of Size = (8) 

-- ISN: (89949) : L from (0x7fffffffed14) -- of Size = (4) 

-- ISN: (89952) : S -> 0x(63) at (0x7fffffffed14) -- Size = (4) 

-- ISN: (89953) : L from (0x7fffffffed14) -- of Size = (4) 

-- ISN: (89806) : S -> 0x(0) at (0x7fffffffecfc) -- Size = (4) 

-- ISN: (89807) : L from (0x7fffffffecec) -- of Size = (4) 

-- ISN: (89820) : L from (0x7fffffffecfc) -- of Size = (4) 

-- ISN: (89812) : L from (0x6bc5c0) -- of Size = (4) 

-- ISN: (89959) : L from (0x7fffffffed14) -- of Size = (4) 

-- ISN: (89963) : S -> 0x(bd) at (0x7fffffffed08) -- Size = (8) 

-- ISN: (89966) : S -> 0x(20) at (0x7fffffffed00) -- Size = (8) 

-- ISN: (89969) : S -> 0x(63) at (0x7fffffffecec) -- Size = (4) 

-- ISN: (89971) : L from (0x7fffffffecec) -- of Size = (4) 

-- ISN: (89816) : L from (0x6bc420) -- of Size = (1) 

-- ISN: (89976) : L from (0x7fffffffecec) -- of Size = (4) 

-- ISN: (89823) : S -> 0x(0) at (0x6bc424) -- Size = (4) 

-- ISN: (89864) : L from (0x71d5e0) -- of Size = (4) 

-- ISN: (90002) : L from (0x7fffffffed00) -- of Size = (8) 

-- ISN: (90005) : L from (0x7fffffffed08) -- of Size = (8) 

-- ISN: (90008) : L from (0x7fffffffed14) -- of Size = (4) 

-- ISN: (90011) : S -> 0x(64) at (0x7fffffffed14) -- Size = (4) 

-- ISN: (90012) : L from (0x7fffffffed14) -- of Size = (4) 

-- Sqsh -> ISN (90017)

-- ISN: (90077) : S -> 0x(d8) at (0x7fffffffed08) -- Size = (8) 

-- ISN: (90081) : S -> 0x(0) at (0x7fffffffed10) -- Size = (4) 

-- Sqsh -> ISN (90079)

-- ISN: (90120) : S -> 0x(20) at (0x7fffffffed00) -- Size = (8) 

-- ISN: (90123) : S -> 0x(69) at (0x7fffffffecec) -- Size = (4) 

-- ISN: (89865) : S -> 0x(0) at (0x7fffffffecfc) -- Size = (4) 

-- ISN: (89866) : L from (0x7fffffffecec) -- of Size = (4) 

-- ISN: (89879) : L from (0x7fffffffecfc) -- of Size = (4) 

-- ISN: (89871) : L from (0x6bc5c4) -- of Size = (4) 

-- ISN: (90125) : L from (0x7fffffffecec) -- of Size = (4) 

-- ISN: (89875) : L from (0x6bc421) -- of Size = (1) 

-- ISN: (90130) : L from (0x7fffffffecec) -- of Size = (4) 

-- Sqsh -> ISN (90129)

-- ISN: (89882) : S -> 0x(0) at (0x6bc424) -- Size = (4) 

-- ISN: (89923) : L from (0x71e5e0) -- of Size = (4) 

-- ISN: (90184) : L from (0x7fffffffed00) -- of Size = (8) 

-- ISN: (90187) : L from (0x7fffffffed08) -- of Size = (8) 

-- ISN: (90191) : S -> 0x(0) at (0x7fffffffed10) -- Size = (4) 

-- ISN: (90195) : L from (0x7fffffffed10) -- of Size = (4) 

-- ISN: (90199) : L from (0x7fffffffed10) -- of Size = (4) 

-- Sqsh -> ISN (90194)

-- ISN: (90237) : L from (0x7fffffffed10) -- of Size = (4) 

-- ISN: (90246) : S -> 0x(fc) at (0x7fffffffed08) -- Size = (8) 

-- ISN: (90250) : L from (0x7fffffffed18) -- of Size = (8) 

-- ISN: (90251) : L from (0xabd8a8) -- of Size = (8) 

-- Sqsh -> ISN (90242)

-- ISN: (90275) : L from (0x7fffffffed10) -- of Size = (4) 

-- ISN: (90279) : L from (0x7fffffffed10) -- of Size = (4) 

-- ISN: (90278) : S -> 0x(1) at (0x7fffffffed10) -- Size = (4) 

-- Sqsh -> ISN (90278)

-- ISN: (89924) : S -> 0x(0) at (0x7fffffffecfc) -- Size = (4) 

-- ISN: (89925) : L from (0x7fffffffecec) -- of Size = (4) 

-- ISN: (89938) : L from (0x7fffffffecfc) -- of Size = (4) 

-- ISN: (89930) : L from (0x6bc5c8) -- of Size = (4) 

-- ISN: (90325) : L from (0x7fffffffed10) -- of Size = (4) 

-- ISN: (89934) : L from (0x6bc422) -- of Size = (1) 

-- Sqsh -> ISN (90330)

-- ISN: (89941) : S -> 0x(0) at (0x6bc424) -- Size = (4) 

-- ISN: (89982) : L from (0x71f5e0) -- of Size = (4) 

-- ISN: (90389) : L from (0x7fffffffed10) -- of Size = (4) 

-- ISN: (90402) : S -> 0x(fc) at (0x7fffffffed08) -- Size = (8) 

-- ISN: (90392) : S -> 0x(2) at (0x7fffffffed10) -- Size = (4) 

-- Sqsh -> ISN (90404)

-- ISN: (90393) : L from (0x7fffffffed10) -- of Size = (4) 

-- Sqsh -> ISN (90398)

-- ISN: (90435) : L from (0x7fffffffed10) -- of Size = (4) 

-- ISN: (90438) : S -> 0x(3) at (0x7fffffffed10) -- Size = (4) 

-- ISN: (90448) : S -> 0x(fc) at (0x7fffffffed08) -- Size = (8) 

-- ISN: (90439) : L from (0x7fffffffed10) -- of Size = (4) 

-- Sqsh -> ISN (90450)

-- Sqsh -> ISN (90444)

-- ISN: (90481) : L from (0x7fffffffed10) -- of Size = (4) 

-- ISN: (89983) : S -> 0x(0) at (0x7fffffffecfc) -- Size = (4) 

-- ISN: (89984) : L from (0x7fffffffecec) -- of Size = (4) 

-- ISN: (89997) : L from (0x7fffffffecfc) -- of Size = (4) 

-- ISN: (89989) : L from (0x6bc5cc) -- of Size = (4) 

-- ISN: (90484) : S -> 0x(4) at (0x7fffffffed10) -- Size = (4) 

-- ISN: (89993) : L from (0x6bc423) -- of Size = (1) 

-- ISN: (90485) : L from (0x7fffffffed10) -- of Size = (4) 

-- ISN: (90000) : S -> 0x(0) at (0x6bc424) -- Size = (4) 

-- Sqsh -> ISN (90490)

-- ISN: (90541) : L from (0x7fffffffed10) -- of Size = (4) 

-- ISN: (90551) : L from (0x7fffffffed10) -- of Size = (4) 

-- ISN: (90544) : S -> 0x(5) at (0x7fffffffed10) -- Size = (4) 

-- ISN: (90545) : L from (0x7fffffffed10) -- of Size = (4) 

-- ISN: (90561) : L from (0x7fffffffed10) -- of Size = (4) 

-- Sqsh -> ISN (90550)

-- ISN: (90591) : L from (0x7fffffffed10) -- of Size = (4) 

-- ISN: (90594) : S -> 0x(6) at (0x7fffffffed10) -- Size = (4) 

-- ISN: (90595) : L from (0x7fffffffed10) -- of Size = (4) 

-- ISN: (90601) : L from (0x7fffffffed10) -- of Size = (4) 

-- ISN: (90604) : S -> 0x(7) at (0x7fffffffed10) -- Size = (4) 

-- ISN: (90605) : L from (0x7fffffffed10) -- of Size = (4) 

-- ISN: (90611) : L from (0x7fffffffed10) -- of Size = (4) 

-- ISN: (90614) : S -> 0x(8) at (0x7fffffffed10) -- Size = (4) 

-- ISN: (90615) : L from (0x7fffffffed10) -- of Size = (4) 

-- ISN: (90621) : L from (0x7fffffffed10) -- of Size = (4) 

-- ISN: (90624) : S -> 0x(9) at (0x7fffffffed10) -- Size = (4) 

-- ISN: (90625) : L from (0x7fffffffed10) -- of Size = (4) 

-- ISN: (90631) : L from (0x7fffffffed10) -- of Size = (4) 

-- ISN: (90634) : S -> 0x(a) at (0x7fffffffed10) -- Size = (4) 

-- ISN: (90635) : L from (0x7fffffffed10) -- of Size = (4) 

-- ISN: (90641) : L from (0x7fffffffed10) -- of Size = (4) 

-- ISN: (90644) : S -> 0x(b) at (0x7fffffffed10) -- Size = (4) 

-- ISN: (90645) : L from (0x7fffffffed10) -- of Size = (4) 

-- ISN: (90651) : L from (0x7fffffffed10) -- of Size = (4) 

-- Sqsh -> ISN (90640)

-- ISN: (90752) : S -> 0x(fc) at (0x7fffffffed08) -- Size = (8) 

-- ISN: (90756) : L from (0x7fffffffed18) -- of Size = (8) 

-- ISN: (90757) : L from (0xabd8a8) -- of Size = (8) 

-- Sqsh -> ISN (90754)

-- ISN: (90808) : L from (0x7fffffffed08) -- of Size = (8) 

HERE 2 : enable_memreq_tracing = 0
Exiting @ tick 43725000 because exiting with last active thread context
