gem5 Simulator System.  http://gem5.org
gem5 is copyrighted software; use the --copyright option for details.

gem5 compiled Feb 28 2020 17:14:42
gem5 started Feb 28 2020 18:10:41
gem5 executing on tarun-s, pid 15133
command line: build/X86/gem5.opt configs/example/se.py --cmd=/home/tarun/Desktop/gem5/tests/my_progs/spectre_test_2 --cpu-type=DerivO3CPU --caches

Global frequency set at 1000000000000 ticks per second
**** REAL SIMULATION ****

Address of array1 = 0x6bc420 

Address of array2 = 0x6bc3a0 

Address of array3 = 0x6bc5c0 
HERE 1 : enable_memreq_tracing = 1
-- ISN: (60518) : S -> 0x(f0) at (0x7fffffffecd0) -- Size = (8) 

-- ISN: (60521) : S -> 0x(1) at (0x7fffffffeccc) -- Size = (4) 

-- ISN: (60523) : L from (0x7fffffffeccc) -- of Size = (4) 

-- ISN: (60528) : L from (0x7fffffffeccc) -- of Size = (4) 

-- ISN: (60544) : L from (0x7fffffffecd0) -- of Size = (8) 

-- ISN: (60547) : L from (0x7fffffffecd8) -- of Size = (8) 

-- ISN: (60533) : L from (0x6bc424) -- of Size = (4) 

-- ISN: (60551) : L from (0x7fffffffecec) -- of Size = (4) 

-- ISN: (60537) : L from (0x6bc3a1) -- of Size = (1) 

-- ISN: (60553) : S -> 0x(2) at (0x7fffffffecec) -- Size = (4) 

-- ISN: (60563) : S -> 0x(48) at (0x7fffffffecd8) -- Size = (8) 

-- ISN: (60555) : L from (0x7fffffffecec) -- of Size = (4) 

-- ISN: (60569) : S -> 0x(52) at (0x7fffffffecd0) -- Size = (8) 

-- Sqsh -> ISN (60565)

-- ISN: (60542) : S -> 0x(0) at (0x6bc404) -- Size = (4) 

-- Sqsh -> ISN (60559)

-- ISN: (60626) : L from (0x7fffffffecec) -- of Size = (4) 

-- ISN: (60630) : S -> 0x(34) at (0x7fffffffecd8) -- Size = (8) 

-- ISN: (60634) : L from (0x7fffffffecec) -- of Size = (4) 

-- Sqsh -> ISN (60632)

-- ISN: (60686) : S -> 0x(f0) at (0x7fffffffecd0) -- Size = (8) 

-- ISN: (60689) : S -> 0x(2) at (0x7fffffffeccc) -- Size = (4) 

-- ISN: (60691) : L from (0x7fffffffeccc) -- of Size = (4) 

-- ISN: (60696) : L from (0x7fffffffeccc) -- of Size = (4) 

-- ISN: (60712) : L from (0x7fffffffecd0) -- of Size = (8) 

-- ISN: (60715) : L from (0x7fffffffecd8) -- of Size = (8) 

-- ISN: (60701) : L from (0x6bc428) -- of Size = (4) 

-- ISN: (60719) : L from (0x7fffffffecec) -- of Size = (4) 

-- ISN: (60705) : L from (0x6bc3a2) -- of Size = (1) 

-- ISN: (60731) : S -> 0x(48) at (0x7fffffffecd8) -- Size = (8) 

-- ISN: (60721) : S -> 0x(3) at (0x7fffffffecec) -- Size = (4) 

-- ISN: (60737) : S -> 0x(52) at (0x7fffffffecd0) -- Size = (8) 

-- Sqsh -> ISN (60733)

-- ISN: (60723) : L from (0x7fffffffecec) -- of Size = (4) 

-- ISN: (60710) : S -> 0x(0) at (0x6bc404) -- Size = (4) 

-- Sqsh -> ISN (60727)

-- ISN: (60802) : L from (0x7fffffffecec) -- of Size = (4) 

-- ISN: (60806) : S -> 0x(34) at (0x7fffffffecd8) -- Size = (8) 

-- ISN: (60810) : L from (0x7fffffffecec) -- of Size = (4) 

-- Sqsh -> ISN (60808)

-- ISN: (60862) : S -> 0x(f0) at (0x7fffffffecd0) -- Size = (8) 

-- ISN: (60865) : S -> 0x(3) at (0x7fffffffeccc) -- Size = (4) 

-- ISN: (60867) : L from (0x7fffffffeccc) -- of Size = (4) 

-- ISN: (60872) : L from (0x7fffffffeccc) -- of Size = (4) 

-- ISN: (60888) : L from (0x7fffffffecd0) -- of Size = (8) 

-- ISN: (60891) : L from (0x7fffffffecd8) -- of Size = (8) 

-- ISN: (60877) : L from (0x6bc42c) -- of Size = (4) 

-- ISN: (60895) : L from (0x7fffffffecec) -- of Size = (4) 

-- ISN: (60904) : L from (0x7fffffffecec) -- of Size = (4) 

-- ISN: (60908) : S -> 0x(34) at (0x7fffffffecd8) -- Size = (8) 

-- ISN: (60881) : L from (0x6bc3a3) -- of Size = (1) 

-- ISN: (60911) : S -> 0x(f0) at (0x7fffffffecd0) -- Size = (8) 

-- ISN: (60897) : S -> 0x(4) at (0x7fffffffecec) -- Size = (4) 

-- ISN: (60899) : L from (0x7fffffffecec) -- of Size = (4) 

-- ISN: (60914) : S -> 0x(3) at (0x7fffffffeccc) -- Size = (4) 

-- ISN: (60916) : L from (0x7fffffffeccc) -- of Size = (4) 

-- ISN: (60921) : L from (0x7fffffffeccc) -- of Size = (4) 

-- Sqsh -> ISN (60903)

-- ISN: (60886) : S -> 0x(0) at (0x6bc404) -- Size = (4) 

-- ISN: (60951) : L from (0x7fffffffecec) -- of Size = (4) 

-- ISN: (60955) : S -> 0x(34) at (0x7fffffffecd8) -- Size = (8) 

-- ISN: (60958) : S -> 0x(f0) at (0x7fffffffecd0) -- Size = (8) 

-- ISN: (60961) : S -> 0x(4) at (0x7fffffffeccc) -- Size = (4) 

-- ISN: (60963) : L from (0x7fffffffeccc) -- of Size = (4) 

-- ISN: (60968) : L from (0x7fffffffeccc) -- of Size = (4) 

-- ISN: (60984) : L from (0x7fffffffecd0) -- of Size = (8) 

-- ISN: (60987) : L from (0x7fffffffecd8) -- of Size = (8) 

-- ISN: (60973) : L from (0x6bc430) -- of Size = (4) 

-- ISN: (60991) : L from (0x7fffffffecec) -- of Size = (4) 

-- ISN: (60995) : L from (0x7fffffffecec) -- of Size = (4) 

-- ISN: (61004) : S -> 0x(34) at (0x7fffffffecd8) -- Size = (8) 

-- ISN: (61007) : S -> 0x(f0) at (0x7fffffffecd0) -- Size = (8) 

-- ISN: (60977) : L from (0x6bc3a4) -- of Size = (1) 

-- ISN: (60993) : S -> 0x(5) at (0x7fffffffecec) -- Size = (4) 

-- ISN: (61012) : L from (0x7fffffffeccc) -- of Size = (4) 

-- ISN: (61017) : L from (0x7fffffffeccc) -- of Size = (4) 

-- ISN: (61000) : L from (0x7fffffffecec) -- of Size = (4) 

-- Sqsh -> ISN (60994)

-- ISN: (60982) : S -> 0x(0) at (0x6bc404) -- Size = (4) 

-- ISN: (61049) : L from (0x7fffffffecec) -- of Size = (4) 

-- ISN: (61054) : L from (0x7fffffffecec) -- of Size = (4) 

-- ISN: (61058) : S -> 0x(34) at (0x7fffffffecd8) -- Size = (8) 

-- ISN: (61061) : S -> 0x(f0) at (0x7fffffffecd0) -- Size = (8) 

-- ISN: (61064) : S -> 0x(5) at (0x7fffffffeccc) -- Size = (4) 

-- ISN: (61066) : L from (0x7fffffffeccc) -- of Size = (4) 

-- ISN: (61071) : L from (0x7fffffffeccc) -- of Size = (4) 

-- ISN: (61087) : L from (0x7fffffffecd0) -- of Size = (8) 

-- ISN: (61090) : L from (0x7fffffffecd8) -- of Size = (8) 

-- ISN: (61076) : L from (0x6bc434) -- of Size = (4) 

-- ISN: (61094) : L from (0x7fffffffecec) -- of Size = (4) 

-- ISN: (61107) : S -> 0x(34) at (0x7fffffffecd8) -- Size = (8) 

-- ISN: (61110) : S -> 0x(f0) at (0x7fffffffecd0) -- Size = (8) 

-- ISN: (61115) : L from (0x7fffffffeccc) -- of Size = (4) 

-- ISN: (61120) : L from (0x7fffffffeccc) -- of Size = (4) 

-- ISN: (61080) : L from (0x6bc3a5) -- of Size = (1) 

-- ISN: (61136) : L from (0x7fffffffecd0) -- of Size = (8) 

-- ISN: (61096) : S -> 0x(6) at (0x7fffffffecec) -- Size = (4) 

-- ISN: (61139) : L from (0x7fffffffecd8) -- of Size = (8) 

-- ISN: (61098) : L from (0x7fffffffecec) -- of Size = (4) 

-- ISN: (61103) : L from (0x7fffffffecec) -- of Size = (4) 

-- ISN: (61125) : L from (0x6bc434) -- of Size = (4) 

-- ISN: (61143) : L from (0x7fffffffecec) -- of Size = (4) 

-- ISN: (61113) : S -> 0x(6) at (0x7fffffffeccc) -- Size = (4) 

-- ISN: (61085) : S -> 0x(0) at (0x6bc404) -- Size = (4) 

-- ISN: (61145) : S -> 0x(7) at (0x7fffffffecec) -- Size = (4) 

-- ISN: (61156) : S -> 0x(34) at (0x7fffffffecd8) -- Size = (8) 

-- Sqsh -> ISN (61114)

-- ISN: (61188) : L from (0x7fffffffeccc) -- of Size = (4) 

-- ISN: (61193) : L from (0x7fffffffeccc) -- of Size = (4) 

-- ISN: (61209) : L from (0x7fffffffecd0) -- of Size = (8) 

-- ISN: (61198) : L from (0x6bc438) -- of Size = (4) 

-- ISN: (61212) : L from (0x7fffffffecd8) -- of Size = (8) 

-- ISN: (61229) : S -> 0x(34) at (0x7fffffffecd8) -- Size = (8) 

-- ISN: (61216) : L from (0x7fffffffecec) -- of Size = (4) 

-- ISN: (61232) : S -> 0x(f0) at (0x7fffffffecd0) -- Size = (8) 

-- ISN: (61202) : L from (0x6bc3a6) -- of Size = (1) 

-- ISN: (61242) : L from (0x7fffffffeccc) -- of Size = (4) 

-- ISN: (61258) : L from (0x7fffffffecd0) -- of Size = (8) 

-- ISN: (61261) : L from (0x7fffffffecd8) -- of Size = (8) 

-- ISN: (61218) : S -> 0x(7) at (0x7fffffffecec) -- Size = (4) 

-- ISN: (61220) : L from (0x7fffffffecec) -- of Size = (4) 

-- ISN: (61225) : L from (0x7fffffffecec) -- of Size = (4) 

-- ISN: (61265) : L from (0x7fffffffecec) -- of Size = (4) 

-- ISN: (61207) : S -> 0x(0) at (0x6bc404) -- Size = (4) 

-- ISN: (61247) : L from (0x6bc438) -- of Size = (4) 

-- ISN: (61235) : S -> 0x(7) at (0x7fffffffeccc) -- Size = (4) 

-- ISN: (61267) : S -> 0x(8) at (0x7fffffffecec) -- Size = (4) 

-- ISN: (61278) : S -> 0x(34) at (0x7fffffffecd8) -- Size = (8) 

-- ISN: (61237) : L from (0x7fffffffeccc) -- of Size = (4) 

-- ISN: (61269) : L from (0x7fffffffecec) -- of Size = (4) 

-- ISN: (61274) : L from (0x7fffffffecec) -- of Size = (4) 

-- ISN: (61281) : S -> 0x(f0) at (0x7fffffffecd0) -- Size = (8) 

-- Sqsh -> ISN (61241)

-- ISN: (61313) : L from (0x7fffffffeccc) -- of Size = (4) 

-- ISN: (61329) : L from (0x7fffffffecd0) -- of Size = (8) 

-- ISN: (61318) : L from (0x6bc43c) -- of Size = (4) 

-- ISN: (61332) : L from (0x7fffffffecd8) -- of Size = (8) 

-- ISN: (61349) : S -> 0x(34) at (0x7fffffffecd8) -- Size = (8) 

-- ISN: (61336) : L from (0x7fffffffecec) -- of Size = (4) 

-- ISN: (61352) : S -> 0x(f0) at (0x7fffffffecd0) -- Size = (8) 

-- ISN: (61322) : L from (0x6bc3a7) -- of Size = (1) 

-- ISN: (61378) : L from (0x7fffffffecd0) -- of Size = (8) 

-- ISN: (61381) : L from (0x7fffffffecd8) -- of Size = (8) 

-- ISN: (61338) : S -> 0x(8) at (0x7fffffffecec) -- Size = (4) 

-- ISN: (61340) : L from (0x7fffffffecec) -- of Size = (4) 

-- ISN: (61345) : L from (0x7fffffffecec) -- of Size = (4) 

-- ISN: (61385) : L from (0x7fffffffecec) -- of Size = (4) 

-- ISN: (61327) : S -> 0x(0) at (0x6bc404) -- Size = (4) 

-- ISN: (61355) : S -> 0x(8) at (0x7fffffffeccc) -- Size = (4) 

-- ISN: (61387) : S -> 0x(9) at (0x7fffffffecec) -- Size = (4) 

-- ISN: (61398) : S -> 0x(34) at (0x7fffffffecd8) -- Size = (8) 

-- ISN: (61357) : L from (0x7fffffffeccc) -- of Size = (4) 

-- ISN: (61362) : L from (0x7fffffffeccc) -- of Size = (4) 

-- ISN: (61389) : L from (0x7fffffffecec) -- of Size = (4) 

-- ISN: (61394) : L from (0x7fffffffecec) -- of Size = (4) 

-- ISN: (61401) : S -> 0x(f0) at (0x7fffffffecd0) -- Size = (8) 

-- ISN: (61404) : S -> 0x(9) at (0x7fffffffeccc) -- Size = (4) 

-- ISN: (61367) : L from (0x6bc440) -- of Size = (4) 

-- ISN: (61406) : L from (0x7fffffffeccc) -- of Size = (4) 

-- ISN: (61411) : L from (0x7fffffffeccc) -- of Size = (4) 

-- ISN: (61427) : L from (0x7fffffffecd0) -- of Size = (8) 

-- ISN: (61430) : L from (0x7fffffffecd8) -- of Size = (8) 

-- ISN: (61434) : L from (0x7fffffffecec) -- of Size = (4) 

-- ISN: (61371) : L from (0x6bc3a8) -- of Size = (1) 

-- ISN: (61416) : L from (0x6bc444) -- of Size = (4) 

-- ISN: (61436) : S -> 0x(a) at (0x7fffffffecec) -- Size = (4) 

-- ISN: (61447) : S -> 0x(34) at (0x7fffffffecd8) -- Size = (8) 

-- ISN: (61438) : L from (0x7fffffffecec) -- of Size = (4) 

-- ISN: (61443) : L from (0x7fffffffecec) -- of Size = (4) 

-- ISN: (61450) : S -> 0x(f0) at (0x7fffffffecd0) -- Size = (8) 

-- ISN: (61420) : L from (0x6bc3a9) -- of Size = (1) 

-- ISN: (61376) : S -> 0x(0) at (0x6bc404) -- Size = (4) 

-- ISN: (61453) : S -> 0x(a) at (0x7fffffffeccc) -- Size = (4) 

-- ISN: (61455) : L from (0x7fffffffeccc) -- of Size = (4) 

-- ISN: (61460) : L from (0x7fffffffeccc) -- of Size = (4) 

-- ISN: (61476) : L from (0x7fffffffecd0) -- of Size = (8) 

-- ISN: (61479) : L from (0x7fffffffecd8) -- of Size = (8) 

-- ISN: (61483) : L from (0x7fffffffecec) -- of Size = (4) 

-- ISN: (61425) : S -> 0x(0) at (0x6bc404) -- Size = (4) 

-- ISN: (61465) : L from (0x6bc448) -- of Size = (4) 

-- ISN: (61485) : S -> 0x(b) at (0x7fffffffecec) -- Size = (4) 

-- ISN: (61496) : S -> 0x(34) at (0x7fffffffecd8) -- Size = (8) 

-- ISN: (61487) : L from (0x7fffffffecec) -- of Size = (4) 

-- ISN: (61492) : L from (0x7fffffffecec) -- of Size = (4) 

-- ISN: (61499) : S -> 0x(f0) at (0x7fffffffecd0) -- Size = (8) 

-- ISN: (61469) : L from (0x6bc3aa) -- of Size = (1) 

-- ISN: (61502) : S -> 0x(b) at (0x7fffffffeccc) -- Size = (4) 

-- ISN: (61504) : L from (0x7fffffffeccc) -- of Size = (4) 

-- ISN: (61509) : L from (0x7fffffffeccc) -- of Size = (4) 

-- ISN: (61525) : L from (0x7fffffffecd0) -- of Size = (8) 

-- ISN: (61528) : L from (0x7fffffffecd8) -- of Size = (8) 

-- ISN: (61474) : S -> 0x(0) at (0x6bc404) -- Size = (4) 

-- ISN: (61532) : L from (0x7fffffffecec) -- of Size = (4) 

-- ISN: (61514) : L from (0x6bc44c) -- of Size = (4) 

-- ISN: (61534) : S -> 0x(c) at (0x7fffffffecec) -- Size = (4) 

-- ISN: (61545) : S -> 0x(34) at (0x7fffffffecd8) -- Size = (8) 

-- ISN: (61536) : L from (0x7fffffffecec) -- of Size = (4) 

-- ISN: (61541) : L from (0x7fffffffecec) -- of Size = (4) 

-- ISN: (61548) : S -> 0x(f0) at (0x7fffffffecd0) -- Size = (8) 

-- ISN: (61518) : L from (0x6bc3ab) -- of Size = (1) 

-- ISN: (61551) : S -> 0x(c) at (0x7fffffffeccc) -- Size = (4) 

-- ISN: (61553) : L from (0x7fffffffeccc) -- of Size = (4) 

-- ISN: (61558) : L from (0x7fffffffeccc) -- of Size = (4) 

-- ISN: (61574) : L from (0x7fffffffecd0) -- of Size = (8) 

-- ISN: (61577) : L from (0x7fffffffecd8) -- of Size = (8) 

-- ISN: (61523) : S -> 0x(0) at (0x6bc404) -- Size = (4) 

-- ISN: (61581) : L from (0x7fffffffecec) -- of Size = (4) 

-- ISN: (61563) : L from (0x6bc450) -- of Size = (4) 

-- ISN: (61583) : S -> 0x(d) at (0x7fffffffecec) -- Size = (4) 

-- ISN: (61594) : S -> 0x(34) at (0x7fffffffecd8) -- Size = (8) 

-- ISN: (61585) : L from (0x7fffffffecec) -- of Size = (4) 

-- ISN: (61590) : L from (0x7fffffffecec) -- of Size = (4) 

-- ISN: (61597) : S -> 0x(f0) at (0x7fffffffecd0) -- Size = (8) 

-- ISN: (61567) : L from (0x6bc3ac) -- of Size = (1) 

-- ISN: (61600) : S -> 0x(d) at (0x7fffffffeccc) -- Size = (4) 

-- ISN: (61602) : L from (0x7fffffffeccc) -- of Size = (4) 

-- ISN: (61607) : L from (0x7fffffffeccc) -- of Size = (4) 

-- ISN: (61623) : L from (0x7fffffffecd0) -- of Size = (8) 

-- ISN: (61626) : L from (0x7fffffffecd8) -- of Size = (8) 

-- ISN: (61572) : S -> 0x(0) at (0x6bc404) -- Size = (4) 

-- ISN: (61630) : L from (0x7fffffffecec) -- of Size = (4) 

-- ISN: (61612) : L from (0x6bc454) -- of Size = (4) 

-- ISN: (61632) : S -> 0x(e) at (0x7fffffffecec) -- Size = (4) 

-- ISN: (61643) : S -> 0x(34) at (0x7fffffffecd8) -- Size = (8) 

-- ISN: (61634) : L from (0x7fffffffecec) -- of Size = (4) 

-- ISN: (61639) : L from (0x7fffffffecec) -- of Size = (4) 

-- ISN: (61646) : S -> 0x(f0) at (0x7fffffffecd0) -- Size = (8) 

-- ISN: (61616) : L from (0x6bc3ad) -- of Size = (1) 

-- ISN: (61649) : S -> 0x(e) at (0x7fffffffeccc) -- Size = (4) 

-- ISN: (61651) : L from (0x7fffffffeccc) -- of Size = (4) 

-- ISN: (61656) : L from (0x7fffffffeccc) -- of Size = (4) 

-- ISN: (61672) : L from (0x7fffffffecd0) -- of Size = (8) 

-- ISN: (61675) : L from (0x7fffffffecd8) -- of Size = (8) 

-- ISN: (61621) : S -> 0x(0) at (0x6bc404) -- Size = (4) 

-- ISN: (61679) : L from (0x7fffffffecec) -- of Size = (4) 

-- ISN: (61661) : L from (0x6bc458) -- of Size = (4) 

-- ISN: (61681) : S -> 0x(f) at (0x7fffffffecec) -- Size = (4) 

-- ISN: (61692) : S -> 0x(34) at (0x7fffffffecd8) -- Size = (8) 

-- ISN: (61683) : L from (0x7fffffffecec) -- of Size = (4) 

-- ISN: (61688) : L from (0x7fffffffecec) -- of Size = (4) 

-- ISN: (61695) : S -> 0x(f0) at (0x7fffffffecd0) -- Size = (8) 

-- ISN: (61665) : L from (0x6bc3ae) -- of Size = (1) 

-- ISN: (61698) : S -> 0x(f) at (0x7fffffffeccc) -- Size = (4) 

-- ISN: (61700) : L from (0x7fffffffeccc) -- of Size = (4) 

-- ISN: (61705) : L from (0x7fffffffeccc) -- of Size = (4) 

-- ISN: (61721) : L from (0x7fffffffecd0) -- of Size = (8) 

-- ISN: (61724) : L from (0x7fffffffecd8) -- of Size = (8) 

-- ISN: (61670) : S -> 0x(0) at (0x6bc404) -- Size = (4) 

-- ISN: (61728) : L from (0x7fffffffecec) -- of Size = (4) 

-- ISN: (61710) : L from (0x6bc45c) -- of Size = (4) 

-- ISN: (61730) : S -> 0x(10) at (0x7fffffffecec) -- Size = (4) 

-- ISN: (61741) : S -> 0x(34) at (0x7fffffffecd8) -- Size = (8) 

-- ISN: (61732) : L from (0x7fffffffecec) -- of Size = (4) 

-- ISN: (61737) : L from (0x7fffffffecec) -- of Size = (4) 

-- ISN: (61744) : S -> 0x(f0) at (0x7fffffffecd0) -- Size = (8) 

-- ISN: (61714) : L from (0x6bc3af) -- of Size = (1) 

-- ISN: (61747) : S -> 0x(10) at (0x7fffffffeccc) -- Size = (4) 

-- ISN: (61749) : L from (0x7fffffffeccc) -- of Size = (4) 

-- ISN: (61754) : L from (0x7fffffffeccc) -- of Size = (4) 

-- ISN: (61770) : L from (0x7fffffffecd0) -- of Size = (8) 

-- ISN: (61773) : L from (0x7fffffffecd8) -- of Size = (8) 

-- ISN: (61719) : S -> 0x(0) at (0x6bc404) -- Size = (4) 

-- ISN: (61777) : L from (0x7fffffffecec) -- of Size = (4) 

-- ISN: (61759) : L from (0x6bc460) -- of Size = (4) 

-- ISN: (61779) : S -> 0x(11) at (0x7fffffffecec) -- Size = (4) 

-- ISN: (61790) : S -> 0x(34) at (0x7fffffffecd8) -- Size = (8) 

-- ISN: (61781) : L from (0x7fffffffecec) -- of Size = (4) 

-- ISN: (61786) : L from (0x7fffffffecec) -- of Size = (4) 

-- ISN: (61793) : S -> 0x(f0) at (0x7fffffffecd0) -- Size = (8) 

-- ISN: (61763) : L from (0x6bc3b0) -- of Size = (1) 

-- ISN: (61796) : S -> 0x(11) at (0x7fffffffeccc) -- Size = (4) 

-- ISN: (61798) : L from (0x7fffffffeccc) -- of Size = (4) 

-- ISN: (61803) : L from (0x7fffffffeccc) -- of Size = (4) 

-- ISN: (61819) : L from (0x7fffffffecd0) -- of Size = (8) 

-- ISN: (61822) : L from (0x7fffffffecd8) -- of Size = (8) 

-- ISN: (61768) : S -> 0x(0) at (0x6bc404) -- Size = (4) 

-- ISN: (61826) : L from (0x7fffffffecec) -- of Size = (4) 

-- ISN: (61808) : L from (0x6bc464) -- of Size = (4) 

-- ISN: (61828) : S -> 0x(12) at (0x7fffffffecec) -- Size = (4) 

-- ISN: (61839) : S -> 0x(34) at (0x7fffffffecd8) -- Size = (8) 

-- ISN: (61830) : L from (0x7fffffffecec) -- of Size = (4) 

-- ISN: (61835) : L from (0x7fffffffecec) -- of Size = (4) 

-- ISN: (61842) : S -> 0x(f0) at (0x7fffffffecd0) -- Size = (8) 

-- ISN: (61812) : L from (0x6bc3b1) -- of Size = (1) 

-- ISN: (61845) : S -> 0x(12) at (0x7fffffffeccc) -- Size = (4) 

-- ISN: (61847) : L from (0x7fffffffeccc) -- of Size = (4) 

-- ISN: (61852) : L from (0x7fffffffeccc) -- of Size = (4) 

-- ISN: (61868) : L from (0x7fffffffecd0) -- of Size = (8) 

-- ISN: (61871) : L from (0x7fffffffecd8) -- of Size = (8) 

-- ISN: (61817) : S -> 0x(0) at (0x6bc404) -- Size = (4) 

-- ISN: (61875) : L from (0x7fffffffecec) -- of Size = (4) 

-- ISN: (61857) : L from (0x6bc468) -- of Size = (4) 

-- ISN: (61877) : S -> 0x(13) at (0x7fffffffecec) -- Size = (4) 

-- ISN: (61888) : S -> 0x(34) at (0x7fffffffecd8) -- Size = (8) 

-- ISN: (61879) : L from (0x7fffffffecec) -- of Size = (4) 

-- ISN: (61884) : L from (0x7fffffffecec) -- of Size = (4) 

-- ISN: (61891) : S -> 0x(f0) at (0x7fffffffecd0) -- Size = (8) 

-- ISN: (61861) : L from (0x6bc3b2) -- of Size = (1) 

-- ISN: (61894) : S -> 0x(13) at (0x7fffffffeccc) -- Size = (4) 

-- ISN: (61896) : L from (0x7fffffffeccc) -- of Size = (4) 

-- ISN: (61901) : L from (0x7fffffffeccc) -- of Size = (4) 

-- ISN: (61917) : L from (0x7fffffffecd0) -- of Size = (8) 

-- ISN: (61920) : L from (0x7fffffffecd8) -- of Size = (8) 

-- ISN: (61866) : S -> 0x(0) at (0x6bc404) -- Size = (4) 

-- ISN: (61924) : L from (0x7fffffffecec) -- of Size = (4) 

-- ISN: (61906) : L from (0x6bc46c) -- of Size = (4) 

-- ISN: (61926) : S -> 0x(14) at (0x7fffffffecec) -- Size = (4) 

-- ISN: (61937) : S -> 0x(34) at (0x7fffffffecd8) -- Size = (8) 

-- ISN: (61928) : L from (0x7fffffffecec) -- of Size = (4) 

-- ISN: (61933) : L from (0x7fffffffecec) -- of Size = (4) 

-- ISN: (61940) : S -> 0x(f0) at (0x7fffffffecd0) -- Size = (8) 

-- ISN: (61910) : L from (0x6bc3b3) -- of Size = (1) 

-- ISN: (61943) : S -> 0x(14) at (0x7fffffffeccc) -- Size = (4) 

-- ISN: (61945) : L from (0x7fffffffeccc) -- of Size = (4) 

-- ISN: (61950) : L from (0x7fffffffeccc) -- of Size = (4) 

-- ISN: (61966) : L from (0x7fffffffecd0) -- of Size = (8) 

-- ISN: (61969) : L from (0x7fffffffecd8) -- of Size = (8) 

-- ISN: (61915) : S -> 0x(0) at (0x6bc404) -- Size = (4) 

-- ISN: (61973) : L from (0x7fffffffecec) -- of Size = (4) 

-- ISN: (61955) : L from (0x6bc470) -- of Size = (4) 

-- ISN: (61975) : S -> 0x(15) at (0x7fffffffecec) -- Size = (4) 

-- ISN: (61986) : S -> 0x(34) at (0x7fffffffecd8) -- Size = (8) 

-- ISN: (61977) : L from (0x7fffffffecec) -- of Size = (4) 

-- ISN: (61982) : L from (0x7fffffffecec) -- of Size = (4) 

-- ISN: (61989) : S -> 0x(f0) at (0x7fffffffecd0) -- Size = (8) 

-- ISN: (61959) : L from (0x6bc3b4) -- of Size = (1) 

-- ISN: (61992) : S -> 0x(15) at (0x7fffffffeccc) -- Size = (4) 

-- ISN: (61994) : L from (0x7fffffffeccc) -- of Size = (4) 

-- ISN: (61999) : L from (0x7fffffffeccc) -- of Size = (4) 

-- ISN: (62015) : L from (0x7fffffffecd0) -- of Size = (8) 

-- ISN: (62018) : L from (0x7fffffffecd8) -- of Size = (8) 

-- ISN: (61964) : S -> 0x(0) at (0x6bc404) -- Size = (4) 

-- ISN: (62022) : L from (0x7fffffffecec) -- of Size = (4) 

-- ISN: (62004) : L from (0x6bc474) -- of Size = (4) 

-- ISN: (62024) : S -> 0x(16) at (0x7fffffffecec) -- Size = (4) 

-- ISN: (62035) : S -> 0x(34) at (0x7fffffffecd8) -- Size = (8) 

-- ISN: (62026) : L from (0x7fffffffecec) -- of Size = (4) 

-- ISN: (62031) : L from (0x7fffffffecec) -- of Size = (4) 

-- ISN: (62038) : S -> 0x(f0) at (0x7fffffffecd0) -- Size = (8) 

-- ISN: (62008) : L from (0x6bc3b5) -- of Size = (1) 

-- ISN: (62041) : S -> 0x(16) at (0x7fffffffeccc) -- Size = (4) 

-- ISN: (62043) : L from (0x7fffffffeccc) -- of Size = (4) 

-- ISN: (62048) : L from (0x7fffffffeccc) -- of Size = (4) 

-- ISN: (62064) : L from (0x7fffffffecd0) -- of Size = (8) 

-- ISN: (62067) : L from (0x7fffffffecd8) -- of Size = (8) 

-- ISN: (62013) : S -> 0x(0) at (0x6bc404) -- Size = (4) 

-- ISN: (62071) : L from (0x7fffffffecec) -- of Size = (4) 

-- ISN: (62053) : L from (0x6bc478) -- of Size = (4) 

-- ISN: (62073) : S -> 0x(17) at (0x7fffffffecec) -- Size = (4) 

-- ISN: (62084) : S -> 0x(34) at (0x7fffffffecd8) -- Size = (8) 

-- ISN: (62075) : L from (0x7fffffffecec) -- of Size = (4) 

-- ISN: (62080) : L from (0x7fffffffecec) -- of Size = (4) 

-- ISN: (62087) : S -> 0x(f0) at (0x7fffffffecd0) -- Size = (8) 

-- ISN: (62057) : L from (0x6bc3b6) -- of Size = (1) 

-- ISN: (62090) : S -> 0x(17) at (0x7fffffffeccc) -- Size = (4) 

-- ISN: (62092) : L from (0x7fffffffeccc) -- of Size = (4) 

-- ISN: (62097) : L from (0x7fffffffeccc) -- of Size = (4) 

-- ISN: (62113) : L from (0x7fffffffecd0) -- of Size = (8) 

-- ISN: (62116) : L from (0x7fffffffecd8) -- of Size = (8) 

-- ISN: (62062) : S -> 0x(0) at (0x6bc404) -- Size = (4) 

-- ISN: (62120) : L from (0x7fffffffecec) -- of Size = (4) 

-- ISN: (62102) : L from (0x6bc47c) -- of Size = (4) 

-- ISN: (62122) : S -> 0x(18) at (0x7fffffffecec) -- Size = (4) 

-- ISN: (62133) : S -> 0x(34) at (0x7fffffffecd8) -- Size = (8) 

-- ISN: (62124) : L from (0x7fffffffecec) -- of Size = (4) 

-- ISN: (62129) : L from (0x7fffffffecec) -- of Size = (4) 

-- ISN: (62136) : S -> 0x(f0) at (0x7fffffffecd0) -- Size = (8) 

-- ISN: (62106) : L from (0x6bc3b7) -- of Size = (1) 

-- ISN: (62139) : S -> 0x(18) at (0x7fffffffeccc) -- Size = (4) 

-- ISN: (62141) : L from (0x7fffffffeccc) -- of Size = (4) 

-- ISN: (62146) : L from (0x7fffffffeccc) -- of Size = (4) 

-- ISN: (62162) : L from (0x7fffffffecd0) -- of Size = (8) 

-- ISN: (62165) : L from (0x7fffffffecd8) -- of Size = (8) 

-- ISN: (62111) : S -> 0x(0) at (0x6bc404) -- Size = (4) 

-- ISN: (62169) : L from (0x7fffffffecec) -- of Size = (4) 

-- ISN: (62151) : L from (0x6bc480) -- of Size = (4) 

-- ISN: (62171) : S -> 0x(19) at (0x7fffffffecec) -- Size = (4) 

-- ISN: (62182) : S -> 0x(34) at (0x7fffffffecd8) -- Size = (8) 

-- ISN: (62173) : L from (0x7fffffffecec) -- of Size = (4) 

-- ISN: (62178) : L from (0x7fffffffecec) -- of Size = (4) 

-- ISN: (62185) : S -> 0x(f0) at (0x7fffffffecd0) -- Size = (8) 

-- ISN: (62155) : L from (0x6bc3b8) -- of Size = (1) 

-- ISN: (62188) : S -> 0x(19) at (0x7fffffffeccc) -- Size = (4) 

-- ISN: (62190) : L from (0x7fffffffeccc) -- of Size = (4) 

-- ISN: (62195) : L from (0x7fffffffeccc) -- of Size = (4) 

-- ISN: (62211) : L from (0x7fffffffecd0) -- of Size = (8) 

-- ISN: (62214) : L from (0x7fffffffecd8) -- of Size = (8) 

-- ISN: (62160) : S -> 0x(0) at (0x6bc404) -- Size = (4) 

-- ISN: (62218) : L from (0x7fffffffecec) -- of Size = (4) 

-- ISN: (62200) : L from (0x6bc484) -- of Size = (4) 

-- ISN: (62220) : S -> 0x(1a) at (0x7fffffffecec) -- Size = (4) 

-- ISN: (62231) : S -> 0x(34) at (0x7fffffffecd8) -- Size = (8) 

-- ISN: (62222) : L from (0x7fffffffecec) -- of Size = (4) 

-- ISN: (62227) : L from (0x7fffffffecec) -- of Size = (4) 

-- ISN: (62234) : S -> 0x(f0) at (0x7fffffffecd0) -- Size = (8) 

-- ISN: (62204) : L from (0x6bc3b9) -- of Size = (1) 

-- ISN: (62237) : S -> 0x(1a) at (0x7fffffffeccc) -- Size = (4) 

-- ISN: (62239) : L from (0x7fffffffeccc) -- of Size = (4) 

-- ISN: (62244) : L from (0x7fffffffeccc) -- of Size = (4) 

-- ISN: (62260) : L from (0x7fffffffecd0) -- of Size = (8) 

-- ISN: (62263) : L from (0x7fffffffecd8) -- of Size = (8) 

-- ISN: (62209) : S -> 0x(0) at (0x6bc404) -- Size = (4) 

-- ISN: (62267) : L from (0x7fffffffecec) -- of Size = (4) 

-- ISN: (62249) : L from (0x6bc488) -- of Size = (4) 

-- ISN: (62269) : S -> 0x(1b) at (0x7fffffffecec) -- Size = (4) 

-- ISN: (62280) : S -> 0x(34) at (0x7fffffffecd8) -- Size = (8) 

-- ISN: (62271) : L from (0x7fffffffecec) -- of Size = (4) 

-- ISN: (62276) : L from (0x7fffffffecec) -- of Size = (4) 

-- ISN: (62283) : S -> 0x(f0) at (0x7fffffffecd0) -- Size = (8) 

-- ISN: (62253) : L from (0x6bc3ba) -- of Size = (1) 

-- ISN: (62286) : S -> 0x(1b) at (0x7fffffffeccc) -- Size = (4) 

-- ISN: (62288) : L from (0x7fffffffeccc) -- of Size = (4) 

-- ISN: (62293) : L from (0x7fffffffeccc) -- of Size = (4) 

-- ISN: (62309) : L from (0x7fffffffecd0) -- of Size = (8) 

-- ISN: (62312) : L from (0x7fffffffecd8) -- of Size = (8) 

-- ISN: (62258) : S -> 0x(0) at (0x6bc404) -- Size = (4) 

-- ISN: (62316) : L from (0x7fffffffecec) -- of Size = (4) 

-- ISN: (62298) : L from (0x6bc48c) -- of Size = (4) 

-- ISN: (62318) : S -> 0x(1c) at (0x7fffffffecec) -- Size = (4) 

-- ISN: (62329) : S -> 0x(34) at (0x7fffffffecd8) -- Size = (8) 

-- ISN: (62320) : L from (0x7fffffffecec) -- of Size = (4) 

-- ISN: (62325) : L from (0x7fffffffecec) -- of Size = (4) 

-- ISN: (62332) : S -> 0x(f0) at (0x7fffffffecd0) -- Size = (8) 

-- ISN: (62302) : L from (0x6bc3bb) -- of Size = (1) 

-- ISN: (62335) : S -> 0x(1c) at (0x7fffffffeccc) -- Size = (4) 

-- ISN: (62337) : L from (0x7fffffffeccc) -- of Size = (4) 

-- ISN: (62342) : L from (0x7fffffffeccc) -- of Size = (4) 

-- ISN: (62358) : L from (0x7fffffffecd0) -- of Size = (8) 

-- ISN: (62361) : L from (0x7fffffffecd8) -- of Size = (8) 

-- ISN: (62307) : S -> 0x(0) at (0x6bc404) -- Size = (4) 

-- ISN: (62365) : L from (0x7fffffffecec) -- of Size = (4) 

-- ISN: (62347) : L from (0x6bc490) -- of Size = (4) 

-- ISN: (62367) : S -> 0x(1d) at (0x7fffffffecec) -- Size = (4) 

-- ISN: (62378) : S -> 0x(34) at (0x7fffffffecd8) -- Size = (8) 

-- ISN: (62369) : L from (0x7fffffffecec) -- of Size = (4) 

-- ISN: (62374) : L from (0x7fffffffecec) -- of Size = (4) 

-- ISN: (62381) : S -> 0x(f0) at (0x7fffffffecd0) -- Size = (8) 

-- ISN: (62351) : L from (0x6bc3bc) -- of Size = (1) 

-- ISN: (62384) : S -> 0x(1d) at (0x7fffffffeccc) -- Size = (4) 

-- ISN: (62386) : L from (0x7fffffffeccc) -- of Size = (4) 

-- ISN: (62391) : L from (0x7fffffffeccc) -- of Size = (4) 

-- ISN: (62407) : L from (0x7fffffffecd0) -- of Size = (8) 

-- ISN: (62410) : L from (0x7fffffffecd8) -- of Size = (8) 

-- ISN: (62356) : S -> 0x(0) at (0x6bc404) -- Size = (4) 

-- ISN: (62414) : L from (0x7fffffffecec) -- of Size = (4) 

-- ISN: (62396) : L from (0x6bc494) -- of Size = (4) 

-- ISN: (62416) : S -> 0x(1e) at (0x7fffffffecec) -- Size = (4) 

-- ISN: (62427) : S -> 0x(34) at (0x7fffffffecd8) -- Size = (8) 

-- ISN: (62418) : L from (0x7fffffffecec) -- of Size = (4) 

-- ISN: (62423) : L from (0x7fffffffecec) -- of Size = (4) 

-- ISN: (62430) : S -> 0x(f0) at (0x7fffffffecd0) -- Size = (8) 

-- ISN: (62400) : L from (0x6bc3bd) -- of Size = (1) 

-- ISN: (62433) : S -> 0x(1e) at (0x7fffffffeccc) -- Size = (4) 

-- ISN: (62435) : L from (0x7fffffffeccc) -- of Size = (4) 

-- ISN: (62440) : L from (0x7fffffffeccc) -- of Size = (4) 

-- ISN: (62456) : L from (0x7fffffffecd0) -- of Size = (8) 

-- ISN: (62459) : L from (0x7fffffffecd8) -- of Size = (8) 

-- ISN: (62405) : S -> 0x(0) at (0x6bc404) -- Size = (4) 

-- ISN: (62463) : L from (0x7fffffffecec) -- of Size = (4) 

-- ISN: (62445) : L from (0x6bc498) -- of Size = (4) 

-- ISN: (62465) : S -> 0x(1f) at (0x7fffffffecec) -- Size = (4) 

-- ISN: (62476) : S -> 0x(34) at (0x7fffffffecd8) -- Size = (8) 

-- ISN: (62467) : L from (0x7fffffffecec) -- of Size = (4) 

-- ISN: (62472) : L from (0x7fffffffecec) -- of Size = (4) 

-- ISN: (62479) : S -> 0x(f0) at (0x7fffffffecd0) -- Size = (8) 

-- ISN: (62449) : L from (0x6bc3be) -- of Size = (1) 

-- ISN: (62482) : S -> 0x(1f) at (0x7fffffffeccc) -- Size = (4) 

-- ISN: (62484) : L from (0x7fffffffeccc) -- of Size = (4) 

-- ISN: (62489) : L from (0x7fffffffeccc) -- of Size = (4) 

-- ISN: (62505) : L from (0x7fffffffecd0) -- of Size = (8) 

-- ISN: (62508) : L from (0x7fffffffecd8) -- of Size = (8) 

-- ISN: (62454) : S -> 0x(0) at (0x6bc404) -- Size = (4) 

-- ISN: (62512) : L from (0x7fffffffecec) -- of Size = (4) 

-- ISN: (62494) : L from (0x6bc49c) -- of Size = (4) 

-- ISN: (62514) : S -> 0x(20) at (0x7fffffffecec) -- Size = (4) 

-- ISN: (62525) : S -> 0x(34) at (0x7fffffffecd8) -- Size = (8) 

-- ISN: (62516) : L from (0x7fffffffecec) -- of Size = (4) 

-- ISN: (62521) : L from (0x7fffffffecec) -- of Size = (4) 

-- ISN: (62528) : S -> 0x(f0) at (0x7fffffffecd0) -- Size = (8) 

-- ISN: (62498) : L from (0x6bc3bf) -- of Size = (1) 

-- ISN: (62531) : S -> 0x(20) at (0x7fffffffeccc) -- Size = (4) 

-- ISN: (62533) : L from (0x7fffffffeccc) -- of Size = (4) 

-- ISN: (62538) : L from (0x7fffffffeccc) -- of Size = (4) 

-- ISN: (62554) : L from (0x7fffffffecd0) -- of Size = (8) 

-- ISN: (62557) : L from (0x7fffffffecd8) -- of Size = (8) 

-- ISN: (62503) : S -> 0x(0) at (0x6bc404) -- Size = (4) 

-- ISN: (62561) : L from (0x7fffffffecec) -- of Size = (4) 

-- ISN: (62543) : L from (0x6bc4a0) -- of Size = (4) 

-- ISN: (62563) : S -> 0x(21) at (0x7fffffffecec) -- Size = (4) 

-- ISN: (62574) : S -> 0x(34) at (0x7fffffffecd8) -- Size = (8) 

-- ISN: (62565) : L from (0x7fffffffecec) -- of Size = (4) 

-- ISN: (62570) : L from (0x7fffffffecec) -- of Size = (4) 

-- ISN: (62577) : S -> 0x(f0) at (0x7fffffffecd0) -- Size = (8) 

-- ISN: (62547) : L from (0x6bc3c0) -- of Size = (1) 

-- ISN: (62580) : S -> 0x(21) at (0x7fffffffeccc) -- Size = (4) 

-- ISN: (62582) : L from (0x7fffffffeccc) -- of Size = (4) 

-- ISN: (62587) : L from (0x7fffffffeccc) -- of Size = (4) 

-- ISN: (62603) : L from (0x7fffffffecd0) -- of Size = (8) 

-- ISN: (62606) : L from (0x7fffffffecd8) -- of Size = (8) 

-- ISN: (62610) : L from (0x7fffffffecec) -- of Size = (4) 

-- ISN: (62592) : L from (0x6bc4a4) -- of Size = (4) 

-- ISN: (62612) : S -> 0x(22) at (0x7fffffffecec) -- Size = (4) 

-- ISN: (62623) : S -> 0x(34) at (0x7fffffffecd8) -- Size = (8) 

-- ISN: (62614) : L from (0x7fffffffecec) -- of Size = (4) 

-- ISN: (62619) : L from (0x7fffffffecec) -- of Size = (4) 

-- ISN: (62626) : S -> 0x(f0) at (0x7fffffffecd0) -- Size = (8) 

-- ISN: (62596) : L from (0x6bc3c1) -- of Size = (1) 

-- ISN: (62629) : S -> 0x(22) at (0x7fffffffeccc) -- Size = (4) 

-- ISN: (62631) : L from (0x7fffffffeccc) -- of Size = (4) 

-- ISN: (62636) : L from (0x7fffffffeccc) -- of Size = (4) 

-- ISN: (62652) : L from (0x7fffffffecd0) -- of Size = (8) 

-- ISN: (62655) : L from (0x7fffffffecd8) -- of Size = (8) 

-- ISN: (62659) : L from (0x7fffffffecec) -- of Size = (4) 

-- ISN: (62641) : L from (0x6bc4a8) -- of Size = (4) 

-- ISN: (62661) : S -> 0x(23) at (0x7fffffffecec) -- Size = (4) 

-- ISN: (62672) : S -> 0x(34) at (0x7fffffffecd8) -- Size = (8) 

-- ISN: (62663) : L from (0x7fffffffecec) -- of Size = (4) 

-- ISN: (62668) : L from (0x7fffffffecec) -- of Size = (4) 

-- ISN: (62675) : S -> 0x(f0) at (0x7fffffffecd0) -- Size = (8) 

-- ISN: (62645) : L from (0x6bc3c2) -- of Size = (1) 

-- ISN: (62678) : S -> 0x(23) at (0x7fffffffeccc) -- Size = (4) 

-- ISN: (62680) : L from (0x7fffffffeccc) -- of Size = (4) 

-- ISN: (62685) : L from (0x7fffffffeccc) -- of Size = (4) 

-- ISN: (62701) : L from (0x7fffffffecd0) -- of Size = (8) 

-- ISN: (62704) : L from (0x7fffffffecd8) -- of Size = (8) 

-- ISN: (62708) : L from (0x7fffffffecec) -- of Size = (4) 

-- ISN: (62690) : L from (0x6bc4ac) -- of Size = (4) 

-- ISN: (62710) : S -> 0x(24) at (0x7fffffffecec) -- Size = (4) 

-- ISN: (62721) : S -> 0x(34) at (0x7fffffffecd8) -- Size = (8) 

-- ISN: (62712) : L from (0x7fffffffecec) -- of Size = (4) 

-- ISN: (62717) : L from (0x7fffffffecec) -- of Size = (4) 

-- ISN: (62724) : S -> 0x(f0) at (0x7fffffffecd0) -- Size = (8) 

-- ISN: (62694) : L from (0x6bc3c3) -- of Size = (1) 

-- ISN: (62727) : S -> 0x(24) at (0x7fffffffeccc) -- Size = (4) 

-- ISN: (62552) : S -> 0x(0) at (0x6bc404) -- Size = (4) 

-- ISN: (62729) : L from (0x7fffffffeccc) -- of Size = (4) 

-- ISN: (62734) : L from (0x7fffffffeccc) -- of Size = (4) 

-- ISN: (62601) : S -> 0x(0) at (0x6bc404) -- Size = (4) 

-- ISN: (62650) : S -> 0x(0) at (0x6bc404) -- Size = (4) 

-- ISN: (62699) : S -> 0x(0) at (0x6bc404) -- Size = (4) 

-- ISN: (62739) : L from (0x6bc4b0) -- of Size = (4) 

-- ISN: (62750) : L from (0x7fffffffecd0) -- of Size = (8) 

-- ISN: (62753) : L from (0x7fffffffecd8) -- of Size = (8) 

-- ISN: (62757) : L from (0x7fffffffecec) -- of Size = (4) 

-- ISN: (62743) : L from (0x6bc3c4) -- of Size = (1) 

-- ISN: (62770) : S -> 0x(34) at (0x7fffffffecd8) -- Size = (8) 

-- ISN: (62773) : S -> 0x(f0) at (0x7fffffffecd0) -- Size = (8) 

-- ISN: (62759) : S -> 0x(25) at (0x7fffffffecec) -- Size = (4) 

-- ISN: (62799) : L from (0x7fffffffecd0) -- of Size = (8) 

-- ISN: (62761) : L from (0x7fffffffecec) -- of Size = (4) 

-- ISN: (62766) : L from (0x7fffffffecec) -- of Size = (4) 

-- ISN: (62802) : L from (0x7fffffffecd8) -- of Size = (8) 

-- ISN: (62806) : L from (0x7fffffffecec) -- of Size = (4) 

-- ISN: (62748) : S -> 0x(0) at (0x6bc404) -- Size = (4) 

-- ISN: (62776) : S -> 0x(25) at (0x7fffffffeccc) -- Size = (4) 

-- ISN: (62778) : L from (0x7fffffffeccc) -- of Size = (4) 

-- ISN: (62783) : L from (0x7fffffffeccc) -- of Size = (4) 

-- ISN: (62819) : S -> 0x(34) at (0x7fffffffecd8) -- Size = (8) 

-- ISN: (62808) : S -> 0x(26) at (0x7fffffffecec) -- Size = (4) 

-- ISN: (62822) : S -> 0x(f0) at (0x7fffffffecd0) -- Size = (8) 

-- ISN: (62810) : L from (0x7fffffffecec) -- of Size = (4) 

-- ISN: (62815) : L from (0x7fffffffecec) -- of Size = (4) 

-- ISN: (62788) : L from (0x6bc4b4) -- of Size = (4) 

-- ISN: (62825) : S -> 0x(26) at (0x7fffffffeccc) -- Size = (4) 

-- ISN: (62848) : L from (0x7fffffffecd0) -- of Size = (8) 

-- ISN: (62827) : L from (0x7fffffffeccc) -- of Size = (4) 

-- ISN: (62832) : L from (0x7fffffffeccc) -- of Size = (4) 

-- ISN: (62851) : L from (0x7fffffffecd8) -- of Size = (8) 

-- ISN: (62792) : L from (0x6bc3c5) -- of Size = (1) 

-- ISN: (62855) : L from (0x7fffffffecec) -- of Size = (4) 

-- ISN: (62837) : L from (0x6bc4b8) -- of Size = (4) 

-- ISN: (62857) : S -> 0x(27) at (0x7fffffffecec) -- Size = (4) 

-- ISN: (62868) : S -> 0x(34) at (0x7fffffffecd8) -- Size = (8) 

-- ISN: (62859) : L from (0x7fffffffecec) -- of Size = (4) 

-- ISN: (62864) : L from (0x7fffffffecec) -- of Size = (4) 

-- ISN: (62871) : S -> 0x(f0) at (0x7fffffffecd0) -- Size = (8) 

-- ISN: (62797) : S -> 0x(0) at (0x6bc404) -- Size = (4) 

-- ISN: (62841) : L from (0x6bc3c6) -- of Size = (1) 

-- ISN: (62874) : S -> 0x(27) at (0x7fffffffeccc) -- Size = (4) 

-- ISN: (62876) : L from (0x7fffffffeccc) -- of Size = (4) 

-- ISN: (62881) : L from (0x7fffffffeccc) -- of Size = (4) 

-- ISN: (62897) : L from (0x7fffffffecd0) -- of Size = (8) 

-- ISN: (62900) : L from (0x7fffffffecd8) -- of Size = (8) 

-- ISN: (62904) : L from (0x7fffffffecec) -- of Size = (4) 

-- ISN: (62846) : S -> 0x(0) at (0x6bc404) -- Size = (4) 

-- ISN: (62886) : L from (0x6bc4bc) -- of Size = (4) 

-- ISN: (62906) : S -> 0x(28) at (0x7fffffffecec) -- Size = (4) 

-- ISN: (62917) : S -> 0x(34) at (0x7fffffffecd8) -- Size = (8) 

-- ISN: (62908) : L from (0x7fffffffecec) -- of Size = (4) 

-- ISN: (62913) : L from (0x7fffffffecec) -- of Size = (4) 

-- ISN: (62920) : S -> 0x(f0) at (0x7fffffffecd0) -- Size = (8) 

-- ISN: (62890) : L from (0x6bc3c7) -- of Size = (1) 

-- ISN: (62923) : S -> 0x(28) at (0x7fffffffeccc) -- Size = (4) 

-- ISN: (62925) : L from (0x7fffffffeccc) -- of Size = (4) 

-- ISN: (62930) : L from (0x7fffffffeccc) -- of Size = (4) 

-- ISN: (62946) : L from (0x7fffffffecd0) -- of Size = (8) 

-- ISN: (62949) : L from (0x7fffffffecd8) -- of Size = (8) 

-- ISN: (62895) : S -> 0x(0) at (0x6bc404) -- Size = (4) 

-- ISN: (62953) : L from (0x7fffffffecec) -- of Size = (4) 

-- ISN: (62935) : L from (0x6bc4c0) -- of Size = (4) 

-- ISN: (62955) : S -> 0x(29) at (0x7fffffffecec) -- Size = (4) 

-- ISN: (62966) : S -> 0x(34) at (0x7fffffffecd8) -- Size = (8) 

-- ISN: (62957) : L from (0x7fffffffecec) -- of Size = (4) 

-- ISN: (62962) : L from (0x7fffffffecec) -- of Size = (4) 

-- ISN: (62969) : S -> 0x(f0) at (0x7fffffffecd0) -- Size = (8) 

-- ISN: (62939) : L from (0x6bc3c8) -- of Size = (1) 

-- ISN: (62972) : S -> 0x(29) at (0x7fffffffeccc) -- Size = (4) 

-- ISN: (62974) : L from (0x7fffffffeccc) -- of Size = (4) 

-- ISN: (62979) : L from (0x7fffffffeccc) -- of Size = (4) 

-- ISN: (62995) : L from (0x7fffffffecd0) -- of Size = (8) 

-- ISN: (62998) : L from (0x7fffffffecd8) -- of Size = (8) 

-- ISN: (62944) : S -> 0x(0) at (0x6bc404) -- Size = (4) 

-- ISN: (63002) : L from (0x7fffffffecec) -- of Size = (4) 

-- ISN: (62984) : L from (0x6bc4c4) -- of Size = (4) 

-- ISN: (63004) : S -> 0x(2a) at (0x7fffffffecec) -- Size = (4) 

-- ISN: (63015) : S -> 0x(34) at (0x7fffffffecd8) -- Size = (8) 

-- ISN: (63006) : L from (0x7fffffffecec) -- of Size = (4) 

-- ISN: (63011) : L from (0x7fffffffecec) -- of Size = (4) 

-- ISN: (63018) : S -> 0x(f0) at (0x7fffffffecd0) -- Size = (8) 

-- ISN: (62988) : L from (0x6bc3c9) -- of Size = (1) 

-- ISN: (63021) : S -> 0x(2a) at (0x7fffffffeccc) -- Size = (4) 

-- ISN: (63023) : L from (0x7fffffffeccc) -- of Size = (4) 

-- ISN: (63028) : L from (0x7fffffffeccc) -- of Size = (4) 

-- ISN: (63044) : L from (0x7fffffffecd0) -- of Size = (8) 

-- ISN: (63047) : L from (0x7fffffffecd8) -- of Size = (8) 

-- ISN: (62993) : S -> 0x(0) at (0x6bc404) -- Size = (4) 

-- ISN: (63051) : L from (0x7fffffffecec) -- of Size = (4) 

-- ISN: (63033) : L from (0x6bc4c8) -- of Size = (4) 

-- ISN: (63053) : S -> 0x(2b) at (0x7fffffffecec) -- Size = (4) 

-- ISN: (63064) : S -> 0x(34) at (0x7fffffffecd8) -- Size = (8) 

-- ISN: (63055) : L from (0x7fffffffecec) -- of Size = (4) 

-- ISN: (63060) : L from (0x7fffffffecec) -- of Size = (4) 

-- ISN: (63067) : S -> 0x(f0) at (0x7fffffffecd0) -- Size = (8) 

-- ISN: (63037) : L from (0x6bc3ca) -- of Size = (1) 

-- ISN: (63070) : S -> 0x(2b) at (0x7fffffffeccc) -- Size = (4) 

-- ISN: (63072) : L from (0x7fffffffeccc) -- of Size = (4) 

-- ISN: (63077) : L from (0x7fffffffeccc) -- of Size = (4) 

-- ISN: (63093) : L from (0x7fffffffecd0) -- of Size = (8) 

-- ISN: (63096) : L from (0x7fffffffecd8) -- of Size = (8) 

-- ISN: (63042) : S -> 0x(0) at (0x6bc404) -- Size = (4) 

-- ISN: (63100) : L from (0x7fffffffecec) -- of Size = (4) 

-- ISN: (63082) : L from (0x6bc4cc) -- of Size = (4) 

-- ISN: (63102) : S -> 0x(2c) at (0x7fffffffecec) -- Size = (4) 

-- ISN: (63113) : S -> 0x(34) at (0x7fffffffecd8) -- Size = (8) 

-- ISN: (63104) : L from (0x7fffffffecec) -- of Size = (4) 

-- ISN: (63109) : L from (0x7fffffffecec) -- of Size = (4) 

-- ISN: (63116) : S -> 0x(f0) at (0x7fffffffecd0) -- Size = (8) 

-- ISN: (63086) : L from (0x6bc3cb) -- of Size = (1) 

-- ISN: (63119) : S -> 0x(2c) at (0x7fffffffeccc) -- Size = (4) 

-- ISN: (63121) : L from (0x7fffffffeccc) -- of Size = (4) 

-- ISN: (63126) : L from (0x7fffffffeccc) -- of Size = (4) 

-- ISN: (63142) : L from (0x7fffffffecd0) -- of Size = (8) 

-- ISN: (63145) : L from (0x7fffffffecd8) -- of Size = (8) 

-- ISN: (63091) : S -> 0x(0) at (0x6bc404) -- Size = (4) 

-- ISN: (63149) : L from (0x7fffffffecec) -- of Size = (4) 

-- ISN: (63131) : L from (0x6bc4d0) -- of Size = (4) 

-- ISN: (63151) : S -> 0x(2d) at (0x7fffffffecec) -- Size = (4) 

-- ISN: (63162) : S -> 0x(34) at (0x7fffffffecd8) -- Size = (8) 

-- ISN: (63153) : L from (0x7fffffffecec) -- of Size = (4) 

-- ISN: (63158) : L from (0x7fffffffecec) -- of Size = (4) 

-- ISN: (63165) : S -> 0x(f0) at (0x7fffffffecd0) -- Size = (8) 

-- ISN: (63135) : L from (0x6bc3cc) -- of Size = (1) 

-- ISN: (63168) : S -> 0x(2d) at (0x7fffffffeccc) -- Size = (4) 

-- ISN: (63170) : L from (0x7fffffffeccc) -- of Size = (4) 

-- ISN: (63175) : L from (0x7fffffffeccc) -- of Size = (4) 

-- ISN: (63191) : L from (0x7fffffffecd0) -- of Size = (8) 

-- ISN: (63194) : L from (0x7fffffffecd8) -- of Size = (8) 

-- ISN: (63140) : S -> 0x(0) at (0x6bc404) -- Size = (4) 

-- ISN: (63198) : L from (0x7fffffffecec) -- of Size = (4) 

-- ISN: (63180) : L from (0x6bc4d4) -- of Size = (4) 

-- ISN: (63200) : S -> 0x(2e) at (0x7fffffffecec) -- Size = (4) 

-- ISN: (63211) : S -> 0x(34) at (0x7fffffffecd8) -- Size = (8) 

-- ISN: (63202) : L from (0x7fffffffecec) -- of Size = (4) 

-- ISN: (63207) : L from (0x7fffffffecec) -- of Size = (4) 

-- ISN: (63214) : S -> 0x(f0) at (0x7fffffffecd0) -- Size = (8) 

-- ISN: (63184) : L from (0x6bc3cd) -- of Size = (1) 

-- ISN: (63217) : S -> 0x(2e) at (0x7fffffffeccc) -- Size = (4) 

-- ISN: (63219) : L from (0x7fffffffeccc) -- of Size = (4) 

-- ISN: (63224) : L from (0x7fffffffeccc) -- of Size = (4) 

-- ISN: (63240) : L from (0x7fffffffecd0) -- of Size = (8) 

-- ISN: (63243) : L from (0x7fffffffecd8) -- of Size = (8) 

-- ISN: (63189) : S -> 0x(0) at (0x6bc404) -- Size = (4) 

-- ISN: (63247) : L from (0x7fffffffecec) -- of Size = (4) 

-- ISN: (63229) : L from (0x6bc4d8) -- of Size = (4) 

-- ISN: (63249) : S -> 0x(2f) at (0x7fffffffecec) -- Size = (4) 

-- ISN: (63260) : S -> 0x(34) at (0x7fffffffecd8) -- Size = (8) 

-- ISN: (63251) : L from (0x7fffffffecec) -- of Size = (4) 

-- ISN: (63256) : L from (0x7fffffffecec) -- of Size = (4) 

-- ISN: (63263) : S -> 0x(f0) at (0x7fffffffecd0) -- Size = (8) 

-- ISN: (63233) : L from (0x6bc3ce) -- of Size = (1) 

-- ISN: (63266) : S -> 0x(2f) at (0x7fffffffeccc) -- Size = (4) 

-- ISN: (63268) : L from (0x7fffffffeccc) -- of Size = (4) 

-- ISN: (63273) : L from (0x7fffffffeccc) -- of Size = (4) 

-- ISN: (63289) : L from (0x7fffffffecd0) -- of Size = (8) 

-- ISN: (63292) : L from (0x7fffffffecd8) -- of Size = (8) 

-- ISN: (63238) : S -> 0x(0) at (0x6bc404) -- Size = (4) 

-- ISN: (63296) : L from (0x7fffffffecec) -- of Size = (4) 

-- ISN: (63278) : L from (0x6bc4dc) -- of Size = (4) 

-- ISN: (63298) : S -> 0x(30) at (0x7fffffffecec) -- Size = (4) 

-- ISN: (63309) : S -> 0x(34) at (0x7fffffffecd8) -- Size = (8) 

-- ISN: (63300) : L from (0x7fffffffecec) -- of Size = (4) 

-- ISN: (63305) : L from (0x7fffffffecec) -- of Size = (4) 

-- ISN: (63312) : S -> 0x(f0) at (0x7fffffffecd0) -- Size = (8) 

-- ISN: (63282) : L from (0x6bc3cf) -- of Size = (1) 

-- ISN: (63315) : S -> 0x(30) at (0x7fffffffeccc) -- Size = (4) 

-- ISN: (63317) : L from (0x7fffffffeccc) -- of Size = (4) 

-- ISN: (63322) : L from (0x7fffffffeccc) -- of Size = (4) 

-- ISN: (63338) : L from (0x7fffffffecd0) -- of Size = (8) 

-- ISN: (63341) : L from (0x7fffffffecd8) -- of Size = (8) 

-- ISN: (63287) : S -> 0x(0) at (0x6bc404) -- Size = (4) 

-- ISN: (63345) : L from (0x7fffffffecec) -- of Size = (4) 

-- ISN: (63327) : L from (0x6bc4e0) -- of Size = (4) 

-- ISN: (63347) : S -> 0x(31) at (0x7fffffffecec) -- Size = (4) 

-- ISN: (63358) : S -> 0x(34) at (0x7fffffffecd8) -- Size = (8) 

-- ISN: (63349) : L from (0x7fffffffecec) -- of Size = (4) 

-- ISN: (63354) : L from (0x7fffffffecec) -- of Size = (4) 

-- ISN: (63361) : S -> 0x(f0) at (0x7fffffffecd0) -- Size = (8) 

-- ISN: (63331) : L from (0x6bc3d0) -- of Size = (1) 

-- ISN: (63364) : S -> 0x(31) at (0x7fffffffeccc) -- Size = (4) 

-- ISN: (63366) : L from (0x7fffffffeccc) -- of Size = (4) 

-- ISN: (63371) : L from (0x7fffffffeccc) -- of Size = (4) 

-- ISN: (63387) : L from (0x7fffffffecd0) -- of Size = (8) 

-- ISN: (63390) : L from (0x7fffffffecd8) -- of Size = (8) 

-- ISN: (63336) : S -> 0x(0) at (0x6bc404) -- Size = (4) 

-- ISN: (63394) : L from (0x7fffffffecec) -- of Size = (4) 

-- ISN: (63376) : L from (0x6bc4e4) -- of Size = (4) 

-- ISN: (63396) : S -> 0x(32) at (0x7fffffffecec) -- Size = (4) 

-- ISN: (63407) : S -> 0x(34) at (0x7fffffffecd8) -- Size = (8) 

-- ISN: (63398) : L from (0x7fffffffecec) -- of Size = (4) 

-- ISN: (63403) : L from (0x7fffffffecec) -- of Size = (4) 

-- ISN: (63410) : S -> 0x(f0) at (0x7fffffffecd0) -- Size = (8) 

-- ISN: (63380) : L from (0x6bc3d1) -- of Size = (1) 

-- ISN: (63413) : S -> 0x(32) at (0x7fffffffeccc) -- Size = (4) 

-- ISN: (63415) : L from (0x7fffffffeccc) -- of Size = (4) 

-- ISN: (63420) : L from (0x7fffffffeccc) -- of Size = (4) 

-- ISN: (63436) : L from (0x7fffffffecd0) -- of Size = (8) 

-- ISN: (63439) : L from (0x7fffffffecd8) -- of Size = (8) 

-- ISN: (63385) : S -> 0x(0) at (0x6bc404) -- Size = (4) 

-- ISN: (63443) : L from (0x7fffffffecec) -- of Size = (4) 

-- ISN: (63425) : L from (0x6bc4e8) -- of Size = (4) 

-- ISN: (63445) : S -> 0x(33) at (0x7fffffffecec) -- Size = (4) 

-- ISN: (63456) : S -> 0x(34) at (0x7fffffffecd8) -- Size = (8) 

-- ISN: (63447) : L from (0x7fffffffecec) -- of Size = (4) 

-- ISN: (63452) : L from (0x7fffffffecec) -- of Size = (4) 

-- ISN: (63459) : S -> 0x(f0) at (0x7fffffffecd0) -- Size = (8) 

-- ISN: (63429) : L from (0x6bc3d2) -- of Size = (1) 

-- ISN: (63462) : S -> 0x(33) at (0x7fffffffeccc) -- Size = (4) 

-- ISN: (63464) : L from (0x7fffffffeccc) -- of Size = (4) 

-- ISN: (63469) : L from (0x7fffffffeccc) -- of Size = (4) 

-- ISN: (63485) : L from (0x7fffffffecd0) -- of Size = (8) 

-- ISN: (63488) : L from (0x7fffffffecd8) -- of Size = (8) 

-- ISN: (63434) : S -> 0x(0) at (0x6bc404) -- Size = (4) 

-- ISN: (63492) : L from (0x7fffffffecec) -- of Size = (4) 

-- ISN: (63474) : L from (0x6bc4ec) -- of Size = (4) 

-- ISN: (63494) : S -> 0x(34) at (0x7fffffffecec) -- Size = (4) 

-- ISN: (63505) : S -> 0x(34) at (0x7fffffffecd8) -- Size = (8) 

-- ISN: (63496) : L from (0x7fffffffecec) -- of Size = (4) 

-- ISN: (63501) : L from (0x7fffffffecec) -- of Size = (4) 

-- ISN: (63508) : S -> 0x(f0) at (0x7fffffffecd0) -- Size = (8) 

-- ISN: (63478) : L from (0x6bc3d3) -- of Size = (1) 

-- ISN: (63511) : S -> 0x(34) at (0x7fffffffeccc) -- Size = (4) 

-- ISN: (63513) : L from (0x7fffffffeccc) -- of Size = (4) 

-- ISN: (63518) : L from (0x7fffffffeccc) -- of Size = (4) 

-- ISN: (63534) : L from (0x7fffffffecd0) -- of Size = (8) 

-- ISN: (63537) : L from (0x7fffffffecd8) -- of Size = (8) 

-- ISN: (63483) : S -> 0x(0) at (0x6bc404) -- Size = (4) 

-- ISN: (63541) : L from (0x7fffffffecec) -- of Size = (4) 

-- ISN: (63523) : L from (0x6bc4f0) -- of Size = (4) 

-- ISN: (63543) : S -> 0x(35) at (0x7fffffffecec) -- Size = (4) 

-- ISN: (63554) : S -> 0x(34) at (0x7fffffffecd8) -- Size = (8) 

-- ISN: (63545) : L from (0x7fffffffecec) -- of Size = (4) 

-- ISN: (63550) : L from (0x7fffffffecec) -- of Size = (4) 

-- ISN: (63557) : S -> 0x(f0) at (0x7fffffffecd0) -- Size = (8) 

-- ISN: (63527) : L from (0x6bc3d4) -- of Size = (1) 

-- ISN: (63560) : S -> 0x(35) at (0x7fffffffeccc) -- Size = (4) 

-- ISN: (63562) : L from (0x7fffffffeccc) -- of Size = (4) 

-- ISN: (63567) : L from (0x7fffffffeccc) -- of Size = (4) 

-- ISN: (63583) : L from (0x7fffffffecd0) -- of Size = (8) 

-- ISN: (63586) : L from (0x7fffffffecd8) -- of Size = (8) 

-- ISN: (63532) : S -> 0x(0) at (0x6bc404) -- Size = (4) 

-- ISN: (63590) : L from (0x7fffffffecec) -- of Size = (4) 

-- ISN: (63572) : L from (0x6bc4f4) -- of Size = (4) 

-- ISN: (63592) : S -> 0x(36) at (0x7fffffffecec) -- Size = (4) 

-- ISN: (63603) : S -> 0x(34) at (0x7fffffffecd8) -- Size = (8) 

-- ISN: (63594) : L from (0x7fffffffecec) -- of Size = (4) 

-- ISN: (63599) : L from (0x7fffffffecec) -- of Size = (4) 

-- ISN: (63606) : S -> 0x(f0) at (0x7fffffffecd0) -- Size = (8) 

-- ISN: (63576) : L from (0x6bc3d5) -- of Size = (1) 

-- ISN: (63609) : S -> 0x(36) at (0x7fffffffeccc) -- Size = (4) 

-- ISN: (63611) : L from (0x7fffffffeccc) -- of Size = (4) 

-- ISN: (63616) : L from (0x7fffffffeccc) -- of Size = (4) 

-- ISN: (63632) : L from (0x7fffffffecd0) -- of Size = (8) 

-- ISN: (63635) : L from (0x7fffffffecd8) -- of Size = (8) 

-- ISN: (63581) : S -> 0x(0) at (0x6bc404) -- Size = (4) 

-- ISN: (63639) : L from (0x7fffffffecec) -- of Size = (4) 

-- ISN: (63621) : L from (0x6bc4f8) -- of Size = (4) 

-- ISN: (63641) : S -> 0x(37) at (0x7fffffffecec) -- Size = (4) 

-- ISN: (63652) : S -> 0x(34) at (0x7fffffffecd8) -- Size = (8) 

-- ISN: (63643) : L from (0x7fffffffecec) -- of Size = (4) 

-- ISN: (63648) : L from (0x7fffffffecec) -- of Size = (4) 

-- ISN: (63655) : S -> 0x(f0) at (0x7fffffffecd0) -- Size = (8) 

-- ISN: (63625) : L from (0x6bc3d6) -- of Size = (1) 

-- ISN: (63658) : S -> 0x(37) at (0x7fffffffeccc) -- Size = (4) 

-- ISN: (63660) : L from (0x7fffffffeccc) -- of Size = (4) 

-- ISN: (63665) : L from (0x7fffffffeccc) -- of Size = (4) 

-- ISN: (63681) : L from (0x7fffffffecd0) -- of Size = (8) 

-- ISN: (63684) : L from (0x7fffffffecd8) -- of Size = (8) 

-- ISN: (63630) : S -> 0x(0) at (0x6bc404) -- Size = (4) 

-- ISN: (63688) : L from (0x7fffffffecec) -- of Size = (4) 

-- ISN: (63670) : L from (0x6bc4fc) -- of Size = (4) 

-- ISN: (63690) : S -> 0x(38) at (0x7fffffffecec) -- Size = (4) 

-- ISN: (63701) : S -> 0x(34) at (0x7fffffffecd8) -- Size = (8) 

-- ISN: (63692) : L from (0x7fffffffecec) -- of Size = (4) 

-- ISN: (63697) : L from (0x7fffffffecec) -- of Size = (4) 

-- ISN: (63704) : S -> 0x(f0) at (0x7fffffffecd0) -- Size = (8) 

-- ISN: (63674) : L from (0x6bc3d7) -- of Size = (1) 

-- ISN: (63707) : S -> 0x(38) at (0x7fffffffeccc) -- Size = (4) 

-- ISN: (63709) : L from (0x7fffffffeccc) -- of Size = (4) 

-- ISN: (63714) : L from (0x7fffffffeccc) -- of Size = (4) 

-- ISN: (63730) : L from (0x7fffffffecd0) -- of Size = (8) 

-- ISN: (63733) : L from (0x7fffffffecd8) -- of Size = (8) 

-- ISN: (63679) : S -> 0x(0) at (0x6bc404) -- Size = (4) 

-- ISN: (63737) : L from (0x7fffffffecec) -- of Size = (4) 

-- ISN: (63719) : L from (0x6bc500) -- of Size = (4) 

-- ISN: (63739) : S -> 0x(39) at (0x7fffffffecec) -- Size = (4) 

-- ISN: (63750) : S -> 0x(34) at (0x7fffffffecd8) -- Size = (8) 

-- ISN: (63741) : L from (0x7fffffffecec) -- of Size = (4) 

-- ISN: (63746) : L from (0x7fffffffecec) -- of Size = (4) 

-- ISN: (63753) : S -> 0x(f0) at (0x7fffffffecd0) -- Size = (8) 

-- ISN: (63723) : L from (0x6bc3d8) -- of Size = (1) 

-- ISN: (63756) : S -> 0x(39) at (0x7fffffffeccc) -- Size = (4) 

-- ISN: (63758) : L from (0x7fffffffeccc) -- of Size = (4) 

-- ISN: (63763) : L from (0x7fffffffeccc) -- of Size = (4) 

-- ISN: (63779) : L from (0x7fffffffecd0) -- of Size = (8) 

-- ISN: (63782) : L from (0x7fffffffecd8) -- of Size = (8) 

-- ISN: (63728) : S -> 0x(0) at (0x6bc404) -- Size = (4) 

-- ISN: (63786) : L from (0x7fffffffecec) -- of Size = (4) 

-- ISN: (63768) : L from (0x6bc504) -- of Size = (4) 

-- ISN: (63788) : S -> 0x(3a) at (0x7fffffffecec) -- Size = (4) 

-- ISN: (63799) : S -> 0x(34) at (0x7fffffffecd8) -- Size = (8) 

-- ISN: (63790) : L from (0x7fffffffecec) -- of Size = (4) 

-- ISN: (63795) : L from (0x7fffffffecec) -- of Size = (4) 

-- ISN: (63802) : S -> 0x(f0) at (0x7fffffffecd0) -- Size = (8) 

-- ISN: (63772) : L from (0x6bc3d9) -- of Size = (1) 

-- ISN: (63805) : S -> 0x(3a) at (0x7fffffffeccc) -- Size = (4) 

-- ISN: (63807) : L from (0x7fffffffeccc) -- of Size = (4) 

-- ISN: (63812) : L from (0x7fffffffeccc) -- of Size = (4) 

-- ISN: (63828) : L from (0x7fffffffecd0) -- of Size = (8) 

-- ISN: (63831) : L from (0x7fffffffecd8) -- of Size = (8) 

-- ISN: (63777) : S -> 0x(0) at (0x6bc404) -- Size = (4) 

-- ISN: (63835) : L from (0x7fffffffecec) -- of Size = (4) 

-- ISN: (63817) : L from (0x6bc508) -- of Size = (4) 

-- ISN: (63837) : S -> 0x(3b) at (0x7fffffffecec) -- Size = (4) 

-- ISN: (63848) : S -> 0x(34) at (0x7fffffffecd8) -- Size = (8) 

-- ISN: (63839) : L from (0x7fffffffecec) -- of Size = (4) 

-- ISN: (63844) : L from (0x7fffffffecec) -- of Size = (4) 

-- ISN: (63851) : S -> 0x(f0) at (0x7fffffffecd0) -- Size = (8) 

-- ISN: (63821) : L from (0x6bc3da) -- of Size = (1) 

-- ISN: (63854) : S -> 0x(3b) at (0x7fffffffeccc) -- Size = (4) 

-- ISN: (63856) : L from (0x7fffffffeccc) -- of Size = (4) 

-- ISN: (63861) : L from (0x7fffffffeccc) -- of Size = (4) 

-- ISN: (63877) : L from (0x7fffffffecd0) -- of Size = (8) 

-- ISN: (63880) : L from (0x7fffffffecd8) -- of Size = (8) 

-- ISN: (63826) : S -> 0x(0) at (0x6bc404) -- Size = (4) 

-- ISN: (63884) : L from (0x7fffffffecec) -- of Size = (4) 

-- ISN: (63866) : L from (0x6bc50c) -- of Size = (4) 

-- ISN: (63886) : S -> 0x(3c) at (0x7fffffffecec) -- Size = (4) 

-- ISN: (63897) : S -> 0x(34) at (0x7fffffffecd8) -- Size = (8) 

-- ISN: (63888) : L from (0x7fffffffecec) -- of Size = (4) 

-- ISN: (63893) : L from (0x7fffffffecec) -- of Size = (4) 

-- ISN: (63900) : S -> 0x(f0) at (0x7fffffffecd0) -- Size = (8) 

-- ISN: (63870) : L from (0x6bc3db) -- of Size = (1) 

-- ISN: (63903) : S -> 0x(3c) at (0x7fffffffeccc) -- Size = (4) 

-- ISN: (63905) : L from (0x7fffffffeccc) -- of Size = (4) 

-- ISN: (63910) : L from (0x7fffffffeccc) -- of Size = (4) 

-- ISN: (63926) : L from (0x7fffffffecd0) -- of Size = (8) 

-- ISN: (63929) : L from (0x7fffffffecd8) -- of Size = (8) 

-- ISN: (63875) : S -> 0x(0) at (0x6bc404) -- Size = (4) 

-- ISN: (63933) : L from (0x7fffffffecec) -- of Size = (4) 

-- ISN: (63915) : L from (0x6bc510) -- of Size = (4) 

-- ISN: (63935) : S -> 0x(3d) at (0x7fffffffecec) -- Size = (4) 

-- ISN: (63946) : S -> 0x(34) at (0x7fffffffecd8) -- Size = (8) 

-- ISN: (63937) : L from (0x7fffffffecec) -- of Size = (4) 

-- ISN: (63942) : L from (0x7fffffffecec) -- of Size = (4) 

-- ISN: (63949) : S -> 0x(f0) at (0x7fffffffecd0) -- Size = (8) 

-- ISN: (63919) : L from (0x6bc3dc) -- of Size = (1) 

-- ISN: (63952) : S -> 0x(3d) at (0x7fffffffeccc) -- Size = (4) 

-- ISN: (63954) : L from (0x7fffffffeccc) -- of Size = (4) 

-- ISN: (63959) : L from (0x7fffffffeccc) -- of Size = (4) 

-- ISN: (63975) : L from (0x7fffffffecd0) -- of Size = (8) 

-- ISN: (63978) : L from (0x7fffffffecd8) -- of Size = (8) 

-- ISN: (63924) : S -> 0x(0) at (0x6bc404) -- Size = (4) 

-- ISN: (63982) : L from (0x7fffffffecec) -- of Size = (4) 

-- ISN: (63964) : L from (0x6bc514) -- of Size = (4) 

-- ISN: (63984) : S -> 0x(3e) at (0x7fffffffecec) -- Size = (4) 

-- ISN: (63995) : S -> 0x(34) at (0x7fffffffecd8) -- Size = (8) 

-- ISN: (63986) : L from (0x7fffffffecec) -- of Size = (4) 

-- ISN: (63991) : L from (0x7fffffffecec) -- of Size = (4) 

-- ISN: (63998) : S -> 0x(f0) at (0x7fffffffecd0) -- Size = (8) 

-- ISN: (63968) : L from (0x6bc3dd) -- of Size = (1) 

-- ISN: (64001) : S -> 0x(3e) at (0x7fffffffeccc) -- Size = (4) 

-- ISN: (64003) : L from (0x7fffffffeccc) -- of Size = (4) 

-- ISN: (64008) : L from (0x7fffffffeccc) -- of Size = (4) 

-- ISN: (64024) : L from (0x7fffffffecd0) -- of Size = (8) 

-- ISN: (64027) : L from (0x7fffffffecd8) -- of Size = (8) 

-- ISN: (63973) : S -> 0x(0) at (0x6bc404) -- Size = (4) 

-- ISN: (64031) : L from (0x7fffffffecec) -- of Size = (4) 

-- ISN: (64013) : L from (0x6bc518) -- of Size = (4) 

-- ISN: (64033) : S -> 0x(3f) at (0x7fffffffecec) -- Size = (4) 

-- ISN: (64044) : S -> 0x(34) at (0x7fffffffecd8) -- Size = (8) 

-- ISN: (64035) : L from (0x7fffffffecec) -- of Size = (4) 

-- ISN: (64040) : L from (0x7fffffffecec) -- of Size = (4) 

-- ISN: (64047) : S -> 0x(f0) at (0x7fffffffecd0) -- Size = (8) 

-- ISN: (64017) : L from (0x6bc3de) -- of Size = (1) 

-- ISN: (64050) : S -> 0x(3f) at (0x7fffffffeccc) -- Size = (4) 

-- ISN: (64052) : L from (0x7fffffffeccc) -- of Size = (4) 

-- ISN: (64057) : L from (0x7fffffffeccc) -- of Size = (4) 

-- ISN: (64073) : L from (0x7fffffffecd0) -- of Size = (8) 

-- ISN: (64076) : L from (0x7fffffffecd8) -- of Size = (8) 

-- ISN: (64022) : S -> 0x(0) at (0x6bc404) -- Size = (4) 

-- ISN: (64080) : L from (0x7fffffffecec) -- of Size = (4) 

-- ISN: (64062) : L from (0x6bc51c) -- of Size = (4) 

-- ISN: (64082) : S -> 0x(40) at (0x7fffffffecec) -- Size = (4) 

-- ISN: (64093) : S -> 0x(34) at (0x7fffffffecd8) -- Size = (8) 

-- ISN: (64084) : L from (0x7fffffffecec) -- of Size = (4) 

-- ISN: (64089) : L from (0x7fffffffecec) -- of Size = (4) 

-- ISN: (64096) : S -> 0x(f0) at (0x7fffffffecd0) -- Size = (8) 

-- ISN: (64066) : L from (0x6bc3df) -- of Size = (1) 

-- ISN: (64099) : S -> 0x(40) at (0x7fffffffeccc) -- Size = (4) 

-- ISN: (64101) : L from (0x7fffffffeccc) -- of Size = (4) 

-- ISN: (64106) : L from (0x7fffffffeccc) -- of Size = (4) 

-- ISN: (64122) : L from (0x7fffffffecd0) -- of Size = (8) 

-- ISN: (64125) : L from (0x7fffffffecd8) -- of Size = (8) 

-- ISN: (64071) : S -> 0x(0) at (0x6bc404) -- Size = (4) 

-- ISN: (64129) : L from (0x7fffffffecec) -- of Size = (4) 

-- ISN: (64111) : L from (0x6bc520) -- of Size = (4) 

-- ISN: (64131) : S -> 0x(41) at (0x7fffffffecec) -- Size = (4) 

-- ISN: (64142) : S -> 0x(34) at (0x7fffffffecd8) -- Size = (8) 

-- ISN: (64133) : L from (0x7fffffffecec) -- of Size = (4) 

-- ISN: (64138) : L from (0x7fffffffecec) -- of Size = (4) 

-- ISN: (64145) : S -> 0x(f0) at (0x7fffffffecd0) -- Size = (8) 

-- ISN: (64115) : L from (0x6bc3e0) -- of Size = (1) 

-- ISN: (64148) : S -> 0x(41) at (0x7fffffffeccc) -- Size = (4) 

-- ISN: (64150) : L from (0x7fffffffeccc) -- of Size = (4) 

-- ISN: (64155) : L from (0x7fffffffeccc) -- of Size = (4) 

-- ISN: (64171) : L from (0x7fffffffecd0) -- of Size = (8) 

-- ISN: (64174) : L from (0x7fffffffecd8) -- of Size = (8) 

-- ISN: (64120) : S -> 0x(0) at (0x6bc404) -- Size = (4) 

-- ISN: (64178) : L from (0x7fffffffecec) -- of Size = (4) 

-- ISN: (64160) : L from (0x6bc524) -- of Size = (4) 

-- ISN: (64180) : S -> 0x(42) at (0x7fffffffecec) -- Size = (4) 

-- ISN: (64191) : S -> 0x(34) at (0x7fffffffecd8) -- Size = (8) 

-- ISN: (64182) : L from (0x7fffffffecec) -- of Size = (4) 

-- ISN: (64187) : L from (0x7fffffffecec) -- of Size = (4) 

-- ISN: (64194) : S -> 0x(f0) at (0x7fffffffecd0) -- Size = (8) 

-- ISN: (64164) : L from (0x6bc3e1) -- of Size = (1) 

-- ISN: (64197) : S -> 0x(42) at (0x7fffffffeccc) -- Size = (4) 

-- ISN: (64199) : L from (0x7fffffffeccc) -- of Size = (4) 

-- ISN: (64204) : L from (0x7fffffffeccc) -- of Size = (4) 

-- ISN: (64220) : L from (0x7fffffffecd0) -- of Size = (8) 

-- ISN: (64223) : L from (0x7fffffffecd8) -- of Size = (8) 

-- ISN: (64169) : S -> 0x(0) at (0x6bc404) -- Size = (4) 

-- ISN: (64227) : L from (0x7fffffffecec) -- of Size = (4) 

-- ISN: (64209) : L from (0x6bc528) -- of Size = (4) 

-- ISN: (64229) : S -> 0x(43) at (0x7fffffffecec) -- Size = (4) 

-- ISN: (64240) : S -> 0x(34) at (0x7fffffffecd8) -- Size = (8) 

-- ISN: (64231) : L from (0x7fffffffecec) -- of Size = (4) 

-- ISN: (64236) : L from (0x7fffffffecec) -- of Size = (4) 

-- ISN: (64243) : S -> 0x(f0) at (0x7fffffffecd0) -- Size = (8) 

-- ISN: (64213) : L from (0x6bc3e2) -- of Size = (1) 

-- ISN: (64246) : S -> 0x(43) at (0x7fffffffeccc) -- Size = (4) 

-- ISN: (64248) : L from (0x7fffffffeccc) -- of Size = (4) 

-- ISN: (64253) : L from (0x7fffffffeccc) -- of Size = (4) 

-- ISN: (64269) : L from (0x7fffffffecd0) -- of Size = (8) 

-- ISN: (64272) : L from (0x7fffffffecd8) -- of Size = (8) 

-- ISN: (64218) : S -> 0x(0) at (0x6bc404) -- Size = (4) 

-- ISN: (64276) : L from (0x7fffffffecec) -- of Size = (4) 

-- ISN: (64258) : L from (0x6bc52c) -- of Size = (4) 

-- ISN: (64278) : S -> 0x(44) at (0x7fffffffecec) -- Size = (4) 

-- ISN: (64289) : S -> 0x(34) at (0x7fffffffecd8) -- Size = (8) 

-- ISN: (64280) : L from (0x7fffffffecec) -- of Size = (4) 

-- ISN: (64285) : L from (0x7fffffffecec) -- of Size = (4) 

-- ISN: (64292) : S -> 0x(f0) at (0x7fffffffecd0) -- Size = (8) 

-- ISN: (64262) : L from (0x6bc3e3) -- of Size = (1) 

-- ISN: (64295) : S -> 0x(44) at (0x7fffffffeccc) -- Size = (4) 

-- ISN: (64297) : L from (0x7fffffffeccc) -- of Size = (4) 

-- ISN: (64302) : L from (0x7fffffffeccc) -- of Size = (4) 

-- ISN: (64318) : L from (0x7fffffffecd0) -- of Size = (8) 

-- ISN: (64321) : L from (0x7fffffffecd8) -- of Size = (8) 

-- ISN: (64267) : S -> 0x(0) at (0x6bc404) -- Size = (4) 

-- ISN: (64325) : L from (0x7fffffffecec) -- of Size = (4) 

-- ISN: (64307) : L from (0x6bc530) -- of Size = (4) 

-- ISN: (64327) : S -> 0x(45) at (0x7fffffffecec) -- Size = (4) 

-- ISN: (64338) : S -> 0x(34) at (0x7fffffffecd8) -- Size = (8) 

-- ISN: (64329) : L from (0x7fffffffecec) -- of Size = (4) 

-- ISN: (64334) : L from (0x7fffffffecec) -- of Size = (4) 

-- ISN: (64341) : S -> 0x(f0) at (0x7fffffffecd0) -- Size = (8) 

-- ISN: (64311) : L from (0x6bc3e4) -- of Size = (1) 

-- ISN: (64344) : S -> 0x(45) at (0x7fffffffeccc) -- Size = (4) 

-- ISN: (64346) : L from (0x7fffffffeccc) -- of Size = (4) 

-- ISN: (64351) : L from (0x7fffffffeccc) -- of Size = (4) 

-- ISN: (64367) : L from (0x7fffffffecd0) -- of Size = (8) 

-- ISN: (64370) : L from (0x7fffffffecd8) -- of Size = (8) 

-- ISN: (64316) : S -> 0x(0) at (0x6bc404) -- Size = (4) 

-- ISN: (64374) : L from (0x7fffffffecec) -- of Size = (4) 

-- ISN: (64356) : L from (0x6bc534) -- of Size = (4) 

-- ISN: (64376) : S -> 0x(46) at (0x7fffffffecec) -- Size = (4) 

-- ISN: (64387) : S -> 0x(34) at (0x7fffffffecd8) -- Size = (8) 

-- ISN: (64378) : L from (0x7fffffffecec) -- of Size = (4) 

-- ISN: (64383) : L from (0x7fffffffecec) -- of Size = (4) 

-- ISN: (64390) : S -> 0x(f0) at (0x7fffffffecd0) -- Size = (8) 

-- ISN: (64360) : L from (0x6bc3e5) -- of Size = (1) 

-- ISN: (64393) : S -> 0x(46) at (0x7fffffffeccc) -- Size = (4) 

-- ISN: (64395) : L from (0x7fffffffeccc) -- of Size = (4) 

-- ISN: (64400) : L from (0x7fffffffeccc) -- of Size = (4) 

-- ISN: (64416) : L from (0x7fffffffecd0) -- of Size = (8) 

-- ISN: (64419) : L from (0x7fffffffecd8) -- of Size = (8) 

-- ISN: (64365) : S -> 0x(0) at (0x6bc404) -- Size = (4) 

-- ISN: (64423) : L from (0x7fffffffecec) -- of Size = (4) 

-- ISN: (64405) : L from (0x6bc538) -- of Size = (4) 

-- ISN: (64425) : S -> 0x(47) at (0x7fffffffecec) -- Size = (4) 

-- ISN: (64436) : S -> 0x(34) at (0x7fffffffecd8) -- Size = (8) 

-- ISN: (64427) : L from (0x7fffffffecec) -- of Size = (4) 

-- ISN: (64432) : L from (0x7fffffffecec) -- of Size = (4) 

-- ISN: (64439) : S -> 0x(f0) at (0x7fffffffecd0) -- Size = (8) 

-- ISN: (64409) : L from (0x6bc3e6) -- of Size = (1) 

-- ISN: (64442) : S -> 0x(47) at (0x7fffffffeccc) -- Size = (4) 

-- ISN: (64444) : L from (0x7fffffffeccc) -- of Size = (4) 

-- ISN: (64449) : L from (0x7fffffffeccc) -- of Size = (4) 

-- ISN: (64465) : L from (0x7fffffffecd0) -- of Size = (8) 

-- ISN: (64468) : L from (0x7fffffffecd8) -- of Size = (8) 

-- ISN: (64414) : S -> 0x(0) at (0x6bc404) -- Size = (4) 

-- ISN: (64472) : L from (0x7fffffffecec) -- of Size = (4) 

-- ISN: (64454) : L from (0x6bc53c) -- of Size = (4) 

-- ISN: (64474) : S -> 0x(48) at (0x7fffffffecec) -- Size = (4) 

-- ISN: (64485) : S -> 0x(34) at (0x7fffffffecd8) -- Size = (8) 

-- ISN: (64476) : L from (0x7fffffffecec) -- of Size = (4) 

-- ISN: (64481) : L from (0x7fffffffecec) -- of Size = (4) 

-- ISN: (64488) : S -> 0x(f0) at (0x7fffffffecd0) -- Size = (8) 

-- ISN: (64458) : L from (0x6bc3e7) -- of Size = (1) 

-- ISN: (64491) : S -> 0x(48) at (0x7fffffffeccc) -- Size = (4) 

-- ISN: (64493) : L from (0x7fffffffeccc) -- of Size = (4) 

-- ISN: (64498) : L from (0x7fffffffeccc) -- of Size = (4) 

-- ISN: (64514) : L from (0x7fffffffecd0) -- of Size = (8) 

-- ISN: (64517) : L from (0x7fffffffecd8) -- of Size = (8) 

-- ISN: (64463) : S -> 0x(0) at (0x6bc404) -- Size = (4) 

-- ISN: (64521) : L from (0x7fffffffecec) -- of Size = (4) 

-- ISN: (64503) : L from (0x6bc540) -- of Size = (4) 

-- ISN: (64523) : S -> 0x(49) at (0x7fffffffecec) -- Size = (4) 

-- ISN: (64534) : S -> 0x(34) at (0x7fffffffecd8) -- Size = (8) 

-- ISN: (64525) : L from (0x7fffffffecec) -- of Size = (4) 

-- ISN: (64530) : L from (0x7fffffffecec) -- of Size = (4) 

-- ISN: (64537) : S -> 0x(f0) at (0x7fffffffecd0) -- Size = (8) 

-- ISN: (64507) : L from (0x6bc3e8) -- of Size = (1) 

-- ISN: (64540) : S -> 0x(49) at (0x7fffffffeccc) -- Size = (4) 

-- ISN: (64542) : L from (0x7fffffffeccc) -- of Size = (4) 

-- ISN: (64547) : L from (0x7fffffffeccc) -- of Size = (4) 

-- ISN: (64563) : L from (0x7fffffffecd0) -- of Size = (8) 

-- ISN: (64566) : L from (0x7fffffffecd8) -- of Size = (8) 

-- ISN: (64512) : S -> 0x(0) at (0x6bc404) -- Size = (4) 

-- ISN: (64570) : L from (0x7fffffffecec) -- of Size = (4) 

-- ISN: (64552) : L from (0x6bc544) -- of Size = (4) 

-- ISN: (64572) : S -> 0x(4a) at (0x7fffffffecec) -- Size = (4) 

-- ISN: (64583) : S -> 0x(34) at (0x7fffffffecd8) -- Size = (8) 

-- ISN: (64574) : L from (0x7fffffffecec) -- of Size = (4) 

-- ISN: (64579) : L from (0x7fffffffecec) -- of Size = (4) 

-- ISN: (64586) : S -> 0x(f0) at (0x7fffffffecd0) -- Size = (8) 

-- ISN: (64556) : L from (0x6bc3e9) -- of Size = (1) 

-- ISN: (64589) : S -> 0x(4a) at (0x7fffffffeccc) -- Size = (4) 

-- ISN: (64591) : L from (0x7fffffffeccc) -- of Size = (4) 

-- ISN: (64596) : L from (0x7fffffffeccc) -- of Size = (4) 

-- ISN: (64612) : L from (0x7fffffffecd0) -- of Size = (8) 

-- ISN: (64615) : L from (0x7fffffffecd8) -- of Size = (8) 

-- ISN: (64561) : S -> 0x(0) at (0x6bc404) -- Size = (4) 

-- ISN: (64619) : L from (0x7fffffffecec) -- of Size = (4) 

-- ISN: (64601) : L from (0x6bc548) -- of Size = (4) 

-- ISN: (64621) : S -> 0x(4b) at (0x7fffffffecec) -- Size = (4) 

-- ISN: (64632) : S -> 0x(34) at (0x7fffffffecd8) -- Size = (8) 

-- ISN: (64623) : L from (0x7fffffffecec) -- of Size = (4) 

-- ISN: (64628) : L from (0x7fffffffecec) -- of Size = (4) 

-- ISN: (64635) : S -> 0x(f0) at (0x7fffffffecd0) -- Size = (8) 

-- ISN: (64605) : L from (0x6bc3ea) -- of Size = (1) 

-- ISN: (64638) : S -> 0x(4b) at (0x7fffffffeccc) -- Size = (4) 

-- ISN: (64640) : L from (0x7fffffffeccc) -- of Size = (4) 

-- ISN: (64645) : L from (0x7fffffffeccc) -- of Size = (4) 

-- ISN: (64661) : L from (0x7fffffffecd0) -- of Size = (8) 

-- ISN: (64664) : L from (0x7fffffffecd8) -- of Size = (8) 

-- ISN: (64610) : S -> 0x(0) at (0x6bc404) -- Size = (4) 

-- ISN: (64668) : L from (0x7fffffffecec) -- of Size = (4) 

-- ISN: (64650) : L from (0x6bc54c) -- of Size = (4) 

-- ISN: (64670) : S -> 0x(4c) at (0x7fffffffecec) -- Size = (4) 

-- ISN: (64681) : S -> 0x(34) at (0x7fffffffecd8) -- Size = (8) 

-- ISN: (64672) : L from (0x7fffffffecec) -- of Size = (4) 

-- ISN: (64677) : L from (0x7fffffffecec) -- of Size = (4) 

-- ISN: (64684) : S -> 0x(f0) at (0x7fffffffecd0) -- Size = (8) 

-- ISN: (64654) : L from (0x6bc3eb) -- of Size = (1) 

-- ISN: (64687) : S -> 0x(4c) at (0x7fffffffeccc) -- Size = (4) 

-- ISN: (64689) : L from (0x7fffffffeccc) -- of Size = (4) 

-- ISN: (64694) : L from (0x7fffffffeccc) -- of Size = (4) 

-- ISN: (64710) : L from (0x7fffffffecd0) -- of Size = (8) 

-- ISN: (64713) : L from (0x7fffffffecd8) -- of Size = (8) 

-- ISN: (64659) : S -> 0x(0) at (0x6bc404) -- Size = (4) 

-- ISN: (64717) : L from (0x7fffffffecec) -- of Size = (4) 

-- ISN: (64699) : L from (0x6bc550) -- of Size = (4) 

-- ISN: (64719) : S -> 0x(4d) at (0x7fffffffecec) -- Size = (4) 

-- ISN: (64730) : S -> 0x(34) at (0x7fffffffecd8) -- Size = (8) 

-- ISN: (64721) : L from (0x7fffffffecec) -- of Size = (4) 

-- ISN: (64726) : L from (0x7fffffffecec) -- of Size = (4) 

-- ISN: (64733) : S -> 0x(f0) at (0x7fffffffecd0) -- Size = (8) 

-- ISN: (64703) : L from (0x6bc3ec) -- of Size = (1) 

-- ISN: (64736) : S -> 0x(4d) at (0x7fffffffeccc) -- Size = (4) 

-- ISN: (64738) : L from (0x7fffffffeccc) -- of Size = (4) 

-- ISN: (64743) : L from (0x7fffffffeccc) -- of Size = (4) 

-- ISN: (64759) : L from (0x7fffffffecd0) -- of Size = (8) 

-- ISN: (64762) : L from (0x7fffffffecd8) -- of Size = (8) 

-- ISN: (64708) : S -> 0x(0) at (0x6bc404) -- Size = (4) 

-- ISN: (64766) : L from (0x7fffffffecec) -- of Size = (4) 

-- ISN: (64748) : L from (0x6bc554) -- of Size = (4) 

-- ISN: (64768) : S -> 0x(4e) at (0x7fffffffecec) -- Size = (4) 

-- ISN: (64779) : S -> 0x(34) at (0x7fffffffecd8) -- Size = (8) 

-- ISN: (64770) : L from (0x7fffffffecec) -- of Size = (4) 

-- ISN: (64775) : L from (0x7fffffffecec) -- of Size = (4) 

-- ISN: (64782) : S -> 0x(f0) at (0x7fffffffecd0) -- Size = (8) 

-- ISN: (64752) : L from (0x6bc3ed) -- of Size = (1) 

-- ISN: (64785) : S -> 0x(4e) at (0x7fffffffeccc) -- Size = (4) 

-- ISN: (64787) : L from (0x7fffffffeccc) -- of Size = (4) 

-- ISN: (64792) : L from (0x7fffffffeccc) -- of Size = (4) 

-- ISN: (64808) : L from (0x7fffffffecd0) -- of Size = (8) 

-- ISN: (64811) : L from (0x7fffffffecd8) -- of Size = (8) 

-- ISN: (64757) : S -> 0x(0) at (0x6bc404) -- Size = (4) 

-- ISN: (64815) : L from (0x7fffffffecec) -- of Size = (4) 

-- ISN: (64797) : L from (0x6bc558) -- of Size = (4) 

-- ISN: (64817) : S -> 0x(4f) at (0x7fffffffecec) -- Size = (4) 

-- ISN: (64828) : S -> 0x(34) at (0x7fffffffecd8) -- Size = (8) 

-- ISN: (64819) : L from (0x7fffffffecec) -- of Size = (4) 

-- ISN: (64824) : L from (0x7fffffffecec) -- of Size = (4) 

-- ISN: (64831) : S -> 0x(f0) at (0x7fffffffecd0) -- Size = (8) 

-- ISN: (64801) : L from (0x6bc3ee) -- of Size = (1) 

-- ISN: (64834) : S -> 0x(4f) at (0x7fffffffeccc) -- Size = (4) 

-- ISN: (64836) : L from (0x7fffffffeccc) -- of Size = (4) 

-- ISN: (64841) : L from (0x7fffffffeccc) -- of Size = (4) 

-- ISN: (64857) : L from (0x7fffffffecd0) -- of Size = (8) 

-- ISN: (64860) : L from (0x7fffffffecd8) -- of Size = (8) 

-- ISN: (64806) : S -> 0x(0) at (0x6bc404) -- Size = (4) 

-- ISN: (64864) : L from (0x7fffffffecec) -- of Size = (4) 

-- ISN: (64846) : L from (0x6bc55c) -- of Size = (4) 

-- ISN: (64866) : S -> 0x(50) at (0x7fffffffecec) -- Size = (4) 

-- ISN: (64877) : S -> 0x(34) at (0x7fffffffecd8) -- Size = (8) 

-- ISN: (64868) : L from (0x7fffffffecec) -- of Size = (4) 

-- ISN: (64873) : L from (0x7fffffffecec) -- of Size = (4) 

-- ISN: (64880) : S -> 0x(f0) at (0x7fffffffecd0) -- Size = (8) 

-- ISN: (64850) : L from (0x6bc3ef) -- of Size = (1) 

-- ISN: (64883) : S -> 0x(50) at (0x7fffffffeccc) -- Size = (4) 

-- ISN: (64885) : L from (0x7fffffffeccc) -- of Size = (4) 

-- ISN: (64890) : L from (0x7fffffffeccc) -- of Size = (4) 

-- ISN: (64906) : L from (0x7fffffffecd0) -- of Size = (8) 

-- ISN: (64909) : L from (0x7fffffffecd8) -- of Size = (8) 

-- ISN: (64855) : S -> 0x(0) at (0x6bc404) -- Size = (4) 

-- ISN: (64913) : L from (0x7fffffffecec) -- of Size = (4) 

-- ISN: (64895) : L from (0x6bc560) -- of Size = (4) 

-- ISN: (64915) : S -> 0x(51) at (0x7fffffffecec) -- Size = (4) 

-- ISN: (64926) : S -> 0x(34) at (0x7fffffffecd8) -- Size = (8) 

-- ISN: (64917) : L from (0x7fffffffecec) -- of Size = (4) 

-- ISN: (64922) : L from (0x7fffffffecec) -- of Size = (4) 

-- ISN: (64929) : S -> 0x(f0) at (0x7fffffffecd0) -- Size = (8) 

-- ISN: (64899) : L from (0x6bc3f0) -- of Size = (1) 

-- ISN: (64932) : S -> 0x(51) at (0x7fffffffeccc) -- Size = (4) 

-- ISN: (64934) : L from (0x7fffffffeccc) -- of Size = (4) 

-- ISN: (64939) : L from (0x7fffffffeccc) -- of Size = (4) 

-- ISN: (64955) : L from (0x7fffffffecd0) -- of Size = (8) 

-- ISN: (64958) : L from (0x7fffffffecd8) -- of Size = (8) 

-- ISN: (64904) : S -> 0x(0) at (0x6bc404) -- Size = (4) 

-- ISN: (64962) : L from (0x7fffffffecec) -- of Size = (4) 

-- ISN: (64944) : L from (0x6bc564) -- of Size = (4) 

-- ISN: (64964) : S -> 0x(52) at (0x7fffffffecec) -- Size = (4) 

-- ISN: (64975) : S -> 0x(34) at (0x7fffffffecd8) -- Size = (8) 

-- ISN: (64966) : L from (0x7fffffffecec) -- of Size = (4) 

-- ISN: (64971) : L from (0x7fffffffecec) -- of Size = (4) 

-- ISN: (64978) : S -> 0x(f0) at (0x7fffffffecd0) -- Size = (8) 

-- ISN: (64948) : L from (0x6bc3f1) -- of Size = (1) 

-- ISN: (64981) : S -> 0x(52) at (0x7fffffffeccc) -- Size = (4) 

-- ISN: (64983) : L from (0x7fffffffeccc) -- of Size = (4) 

-- ISN: (64988) : L from (0x7fffffffeccc) -- of Size = (4) 

-- ISN: (65004) : L from (0x7fffffffecd0) -- of Size = (8) 

-- ISN: (65007) : L from (0x7fffffffecd8) -- of Size = (8) 

-- ISN: (64953) : S -> 0x(0) at (0x6bc404) -- Size = (4) 

-- ISN: (65011) : L from (0x7fffffffecec) -- of Size = (4) 

-- ISN: (64993) : L from (0x6bc568) -- of Size = (4) 

-- ISN: (65013) : S -> 0x(53) at (0x7fffffffecec) -- Size = (4) 

-- ISN: (65024) : S -> 0x(34) at (0x7fffffffecd8) -- Size = (8) 

-- ISN: (65015) : L from (0x7fffffffecec) -- of Size = (4) 

-- ISN: (65020) : L from (0x7fffffffecec) -- of Size = (4) 

-- ISN: (65027) : S -> 0x(f0) at (0x7fffffffecd0) -- Size = (8) 

-- ISN: (64997) : L from (0x6bc3f2) -- of Size = (1) 

-- ISN: (65030) : S -> 0x(53) at (0x7fffffffeccc) -- Size = (4) 

-- ISN: (65032) : L from (0x7fffffffeccc) -- of Size = (4) 

-- ISN: (65037) : L from (0x7fffffffeccc) -- of Size = (4) 

-- ISN: (65053) : L from (0x7fffffffecd0) -- of Size = (8) 

-- ISN: (65056) : L from (0x7fffffffecd8) -- of Size = (8) 

-- ISN: (65002) : S -> 0x(0) at (0x6bc404) -- Size = (4) 

-- ISN: (65060) : L from (0x7fffffffecec) -- of Size = (4) 

-- ISN: (65042) : L from (0x6bc56c) -- of Size = (4) 

-- ISN: (65062) : S -> 0x(54) at (0x7fffffffecec) -- Size = (4) 

-- ISN: (65073) : S -> 0x(34) at (0x7fffffffecd8) -- Size = (8) 

-- ISN: (65064) : L from (0x7fffffffecec) -- of Size = (4) 

-- ISN: (65069) : L from (0x7fffffffecec) -- of Size = (4) 

-- ISN: (65076) : S -> 0x(f0) at (0x7fffffffecd0) -- Size = (8) 

-- ISN: (65046) : L from (0x6bc3f3) -- of Size = (1) 

-- ISN: (65079) : S -> 0x(54) at (0x7fffffffeccc) -- Size = (4) 

-- ISN: (65081) : L from (0x7fffffffeccc) -- of Size = (4) 

-- ISN: (65086) : L from (0x7fffffffeccc) -- of Size = (4) 

-- ISN: (65102) : L from (0x7fffffffecd0) -- of Size = (8) 

-- ISN: (65105) : L from (0x7fffffffecd8) -- of Size = (8) 

-- ISN: (65051) : S -> 0x(0) at (0x6bc404) -- Size = (4) 

-- ISN: (65109) : L from (0x7fffffffecec) -- of Size = (4) 

-- ISN: (65091) : L from (0x6bc570) -- of Size = (4) 

-- ISN: (65111) : S -> 0x(55) at (0x7fffffffecec) -- Size = (4) 

-- ISN: (65122) : S -> 0x(34) at (0x7fffffffecd8) -- Size = (8) 

-- ISN: (65113) : L from (0x7fffffffecec) -- of Size = (4) 

-- ISN: (65118) : L from (0x7fffffffecec) -- of Size = (4) 

-- ISN: (65125) : S -> 0x(f0) at (0x7fffffffecd0) -- Size = (8) 

-- ISN: (65095) : L from (0x6bc3f4) -- of Size = (1) 

-- ISN: (65128) : S -> 0x(55) at (0x7fffffffeccc) -- Size = (4) 

-- ISN: (65130) : L from (0x7fffffffeccc) -- of Size = (4) 

-- ISN: (65135) : L from (0x7fffffffeccc) -- of Size = (4) 

-- ISN: (65151) : L from (0x7fffffffecd0) -- of Size = (8) 

-- ISN: (65154) : L from (0x7fffffffecd8) -- of Size = (8) 

-- ISN: (65100) : S -> 0x(0) at (0x6bc404) -- Size = (4) 

-- ISN: (65158) : L from (0x7fffffffecec) -- of Size = (4) 

-- ISN: (65140) : L from (0x6bc574) -- of Size = (4) 

-- ISN: (65160) : S -> 0x(56) at (0x7fffffffecec) -- Size = (4) 

-- ISN: (65171) : S -> 0x(34) at (0x7fffffffecd8) -- Size = (8) 

-- ISN: (65162) : L from (0x7fffffffecec) -- of Size = (4) 

-- ISN: (65167) : L from (0x7fffffffecec) -- of Size = (4) 

-- ISN: (65174) : S -> 0x(f0) at (0x7fffffffecd0) -- Size = (8) 

-- ISN: (65144) : L from (0x6bc3f5) -- of Size = (1) 

-- ISN: (65177) : S -> 0x(56) at (0x7fffffffeccc) -- Size = (4) 

-- ISN: (65179) : L from (0x7fffffffeccc) -- of Size = (4) 

-- ISN: (65184) : L from (0x7fffffffeccc) -- of Size = (4) 

-- ISN: (65200) : L from (0x7fffffffecd0) -- of Size = (8) 

-- ISN: (65203) : L from (0x7fffffffecd8) -- of Size = (8) 

-- ISN: (65149) : S -> 0x(0) at (0x6bc404) -- Size = (4) 

-- ISN: (65207) : L from (0x7fffffffecec) -- of Size = (4) 

-- ISN: (65189) : L from (0x6bc578) -- of Size = (4) 

-- ISN: (65209) : S -> 0x(57) at (0x7fffffffecec) -- Size = (4) 

-- ISN: (65220) : S -> 0x(34) at (0x7fffffffecd8) -- Size = (8) 

-- ISN: (65211) : L from (0x7fffffffecec) -- of Size = (4) 

-- ISN: (65216) : L from (0x7fffffffecec) -- of Size = (4) 

-- ISN: (65223) : S -> 0x(f0) at (0x7fffffffecd0) -- Size = (8) 

-- ISN: (65193) : L from (0x6bc3f6) -- of Size = (1) 

-- ISN: (65226) : S -> 0x(57) at (0x7fffffffeccc) -- Size = (4) 

-- ISN: (65228) : L from (0x7fffffffeccc) -- of Size = (4) 

-- ISN: (65233) : L from (0x7fffffffeccc) -- of Size = (4) 

-- ISN: (65249) : L from (0x7fffffffecd0) -- of Size = (8) 

-- ISN: (65252) : L from (0x7fffffffecd8) -- of Size = (8) 

-- ISN: (65198) : S -> 0x(0) at (0x6bc404) -- Size = (4) 

-- ISN: (65256) : L from (0x7fffffffecec) -- of Size = (4) 

-- ISN: (65238) : L from (0x6bc57c) -- of Size = (4) 

-- ISN: (65258) : S -> 0x(58) at (0x7fffffffecec) -- Size = (4) 

-- ISN: (65269) : S -> 0x(34) at (0x7fffffffecd8) -- Size = (8) 

-- ISN: (65260) : L from (0x7fffffffecec) -- of Size = (4) 

-- ISN: (65265) : L from (0x7fffffffecec) -- of Size = (4) 

-- ISN: (65272) : S -> 0x(f0) at (0x7fffffffecd0) -- Size = (8) 

-- ISN: (65242) : L from (0x6bc3f7) -- of Size = (1) 

-- ISN: (65275) : S -> 0x(58) at (0x7fffffffeccc) -- Size = (4) 

-- ISN: (65277) : L from (0x7fffffffeccc) -- of Size = (4) 

-- ISN: (65282) : L from (0x7fffffffeccc) -- of Size = (4) 

-- ISN: (65298) : L from (0x7fffffffecd0) -- of Size = (8) 

-- ISN: (65301) : L from (0x7fffffffecd8) -- of Size = (8) 

-- ISN: (65247) : S -> 0x(0) at (0x6bc404) -- Size = (4) 

-- ISN: (65305) : L from (0x7fffffffecec) -- of Size = (4) 

-- ISN: (65287) : L from (0x6bc580) -- of Size = (4) 

-- ISN: (65307) : S -> 0x(59) at (0x7fffffffecec) -- Size = (4) 

-- ISN: (65318) : S -> 0x(34) at (0x7fffffffecd8) -- Size = (8) 

-- ISN: (65309) : L from (0x7fffffffecec) -- of Size = (4) 

-- ISN: (65314) : L from (0x7fffffffecec) -- of Size = (4) 

-- ISN: (65321) : S -> 0x(f0) at (0x7fffffffecd0) -- Size = (8) 

-- ISN: (65291) : L from (0x6bc3f8) -- of Size = (1) 

-- ISN: (65324) : S -> 0x(59) at (0x7fffffffeccc) -- Size = (4) 

-- ISN: (65326) : L from (0x7fffffffeccc) -- of Size = (4) 

-- ISN: (65331) : L from (0x7fffffffeccc) -- of Size = (4) 

-- ISN: (65347) : L from (0x7fffffffecd0) -- of Size = (8) 

-- ISN: (65350) : L from (0x7fffffffecd8) -- of Size = (8) 

-- ISN: (65296) : S -> 0x(0) at (0x6bc404) -- Size = (4) 

-- ISN: (65354) : L from (0x7fffffffecec) -- of Size = (4) 

-- ISN: (65336) : L from (0x6bc584) -- of Size = (4) 

-- ISN: (65356) : S -> 0x(5a) at (0x7fffffffecec) -- Size = (4) 

-- ISN: (65367) : S -> 0x(34) at (0x7fffffffecd8) -- Size = (8) 

-- ISN: (65358) : L from (0x7fffffffecec) -- of Size = (4) 

-- ISN: (65363) : L from (0x7fffffffecec) -- of Size = (4) 

-- ISN: (65370) : S -> 0x(f0) at (0x7fffffffecd0) -- Size = (8) 

-- ISN: (65340) : L from (0x6bc3f9) -- of Size = (1) 

-- ISN: (65373) : S -> 0x(5a) at (0x7fffffffeccc) -- Size = (4) 

-- ISN: (65375) : L from (0x7fffffffeccc) -- of Size = (4) 

-- ISN: (65380) : L from (0x7fffffffeccc) -- of Size = (4) 

-- ISN: (65396) : L from (0x7fffffffecd0) -- of Size = (8) 

-- ISN: (65399) : L from (0x7fffffffecd8) -- of Size = (8) 

-- ISN: (65345) : S -> 0x(0) at (0x6bc404) -- Size = (4) 

-- ISN: (65403) : L from (0x7fffffffecec) -- of Size = (4) 

-- ISN: (65385) : L from (0x6bc588) -- of Size = (4) 

-- ISN: (65405) : S -> 0x(5b) at (0x7fffffffecec) -- Size = (4) 

-- ISN: (65416) : S -> 0x(34) at (0x7fffffffecd8) -- Size = (8) 

-- ISN: (65407) : L from (0x7fffffffecec) -- of Size = (4) 

-- ISN: (65412) : L from (0x7fffffffecec) -- of Size = (4) 

-- ISN: (65419) : S -> 0x(f0) at (0x7fffffffecd0) -- Size = (8) 

-- ISN: (65389) : L from (0x6bc3fa) -- of Size = (1) 

-- ISN: (65422) : S -> 0x(5b) at (0x7fffffffeccc) -- Size = (4) 

-- ISN: (65424) : L from (0x7fffffffeccc) -- of Size = (4) 

-- ISN: (65429) : L from (0x7fffffffeccc) -- of Size = (4) 

-- ISN: (65445) : L from (0x7fffffffecd0) -- of Size = (8) 

-- ISN: (65448) : L from (0x7fffffffecd8) -- of Size = (8) 

-- ISN: (65394) : S -> 0x(0) at (0x6bc404) -- Size = (4) 

-- ISN: (65452) : L from (0x7fffffffecec) -- of Size = (4) 

-- ISN: (65434) : L from (0x6bc58c) -- of Size = (4) 

-- ISN: (65454) : S -> 0x(5c) at (0x7fffffffecec) -- Size = (4) 

-- ISN: (65465) : S -> 0x(34) at (0x7fffffffecd8) -- Size = (8) 

-- ISN: (65456) : L from (0x7fffffffecec) -- of Size = (4) 

-- ISN: (65461) : L from (0x7fffffffecec) -- of Size = (4) 

-- ISN: (65468) : S -> 0x(f0) at (0x7fffffffecd0) -- Size = (8) 

-- ISN: (65438) : L from (0x6bc3fb) -- of Size = (1) 

-- ISN: (65471) : S -> 0x(5c) at (0x7fffffffeccc) -- Size = (4) 

-- ISN: (65473) : L from (0x7fffffffeccc) -- of Size = (4) 

-- ISN: (65478) : L from (0x7fffffffeccc) -- of Size = (4) 

-- ISN: (65494) : L from (0x7fffffffecd0) -- of Size = (8) 

-- ISN: (65497) : L from (0x7fffffffecd8) -- of Size = (8) 

-- ISN: (65443) : S -> 0x(0) at (0x6bc404) -- Size = (4) 

-- ISN: (65501) : L from (0x7fffffffecec) -- of Size = (4) 

-- ISN: (65483) : L from (0x6bc590) -- of Size = (4) 

-- ISN: (65503) : S -> 0x(5d) at (0x7fffffffecec) -- Size = (4) 

-- ISN: (65514) : S -> 0x(34) at (0x7fffffffecd8) -- Size = (8) 

-- ISN: (65505) : L from (0x7fffffffecec) -- of Size = (4) 

-- ISN: (65510) : L from (0x7fffffffecec) -- of Size = (4) 

-- ISN: (65517) : S -> 0x(f0) at (0x7fffffffecd0) -- Size = (8) 

-- ISN: (65487) : L from (0x6bc3fc) -- of Size = (1) 

-- ISN: (65520) : S -> 0x(5d) at (0x7fffffffeccc) -- Size = (4) 

-- ISN: (65522) : L from (0x7fffffffeccc) -- of Size = (4) 

-- ISN: (65527) : L from (0x7fffffffeccc) -- of Size = (4) 

-- ISN: (65543) : L from (0x7fffffffecd0) -- of Size = (8) 

-- ISN: (65546) : L from (0x7fffffffecd8) -- of Size = (8) 

-- ISN: (65492) : S -> 0x(0) at (0x6bc404) -- Size = (4) 

-- ISN: (65550) : L from (0x7fffffffecec) -- of Size = (4) 

-- ISN: (65532) : L from (0x6bc594) -- of Size = (4) 

-- ISN: (65552) : S -> 0x(5e) at (0x7fffffffecec) -- Size = (4) 

-- ISN: (65563) : S -> 0x(34) at (0x7fffffffecd8) -- Size = (8) 

-- ISN: (65554) : L from (0x7fffffffecec) -- of Size = (4) 

-- ISN: (65559) : L from (0x7fffffffecec) -- of Size = (4) 

-- ISN: (65566) : S -> 0x(f0) at (0x7fffffffecd0) -- Size = (8) 

-- ISN: (65536) : L from (0x6bc3fd) -- of Size = (1) 

-- ISN: (65569) : S -> 0x(5e) at (0x7fffffffeccc) -- Size = (4) 

-- ISN: (65571) : L from (0x7fffffffeccc) -- of Size = (4) 

-- ISN: (65576) : L from (0x7fffffffeccc) -- of Size = (4) 

-- ISN: (65592) : L from (0x7fffffffecd0) -- of Size = (8) 

-- ISN: (65595) : L from (0x7fffffffecd8) -- of Size = (8) 

-- ISN: (65541) : S -> 0x(0) at (0x6bc404) -- Size = (4) 

-- ISN: (65599) : L from (0x7fffffffecec) -- of Size = (4) 

-- ISN: (65581) : L from (0x6bc598) -- of Size = (4) 

-- ISN: (65601) : S -> 0x(5f) at (0x7fffffffecec) -- Size = (4) 

-- ISN: (65612) : S -> 0x(34) at (0x7fffffffecd8) -- Size = (8) 

-- ISN: (65603) : L from (0x7fffffffecec) -- of Size = (4) 

-- ISN: (65608) : L from (0x7fffffffecec) -- of Size = (4) 

-- ISN: (65615) : S -> 0x(f0) at (0x7fffffffecd0) -- Size = (8) 

-- ISN: (65585) : L from (0x6bc3fe) -- of Size = (1) 

-- ISN: (65618) : S -> 0x(5f) at (0x7fffffffeccc) -- Size = (4) 

-- ISN: (65620) : L from (0x7fffffffeccc) -- of Size = (4) 

-- ISN: (65625) : L from (0x7fffffffeccc) -- of Size = (4) 

-- ISN: (65641) : L from (0x7fffffffecd0) -- of Size = (8) 

-- ISN: (65644) : L from (0x7fffffffecd8) -- of Size = (8) 

-- ISN: (65590) : S -> 0x(0) at (0x6bc404) -- Size = (4) 

-- ISN: (65648) : L from (0x7fffffffecec) -- of Size = (4) 

-- ISN: (65630) : L from (0x6bc59c) -- of Size = (4) 

-- ISN: (65650) : S -> 0x(60) at (0x7fffffffecec) -- Size = (4) 

-- ISN: (65661) : S -> 0x(34) at (0x7fffffffecd8) -- Size = (8) 

-- ISN: (65652) : L from (0x7fffffffecec) -- of Size = (4) 

-- ISN: (65657) : L from (0x7fffffffecec) -- of Size = (4) 

-- ISN: (65664) : S -> 0x(f0) at (0x7fffffffecd0) -- Size = (8) 

-- ISN: (65634) : L from (0x6bc3ff) -- of Size = (1) 

-- ISN: (65667) : S -> 0x(60) at (0x7fffffffeccc) -- Size = (4) 

-- ISN: (65669) : L from (0x7fffffffeccc) -- of Size = (4) 

-- ISN: (65674) : L from (0x7fffffffeccc) -- of Size = (4) 

-- ISN: (65690) : L from (0x7fffffffecd0) -- of Size = (8) 

-- ISN: (65693) : L from (0x7fffffffecd8) -- of Size = (8) 

-- ISN: (65639) : S -> 0x(0) at (0x6bc404) -- Size = (4) 

-- ISN: (65697) : L from (0x7fffffffecec) -- of Size = (4) 

-- ISN: (65679) : L from (0x6bc5a0) -- of Size = (4) 

-- ISN: (65699) : S -> 0x(61) at (0x7fffffffecec) -- Size = (4) 

-- ISN: (65710) : S -> 0x(34) at (0x7fffffffecd8) -- Size = (8) 

-- ISN: (65701) : L from (0x7fffffffecec) -- of Size = (4) 

-- ISN: (65706) : L from (0x7fffffffecec) -- of Size = (4) 

-- ISN: (65713) : S -> 0x(f0) at (0x7fffffffecd0) -- Size = (8) 

-- ISN: (65683) : L from (0x6bc400) -- of Size = (1) 

-- ISN: (65716) : S -> 0x(61) at (0x7fffffffeccc) -- Size = (4) 

-- ISN: (65718) : L from (0x7fffffffeccc) -- of Size = (4) 

-- ISN: (65723) : L from (0x7fffffffeccc) -- of Size = (4) 

-- ISN: (65739) : L from (0x7fffffffecd0) -- of Size = (8) 

-- ISN: (65742) : L from (0x7fffffffecd8) -- of Size = (8) 

-- ISN: (65688) : S -> 0x(0) at (0x6bc404) -- Size = (4) 

-- ISN: (65746) : L from (0x7fffffffecec) -- of Size = (4) 

-- ISN: (65728) : L from (0x6bc5a4) -- of Size = (4) 

-- ISN: (65748) : S -> 0x(62) at (0x7fffffffecec) -- Size = (4) 

-- ISN: (65759) : S -> 0x(34) at (0x7fffffffecd8) -- Size = (8) 

-- ISN: (65750) : L from (0x7fffffffecec) -- of Size = (4) 

-- ISN: (65755) : L from (0x7fffffffecec) -- of Size = (4) 

-- ISN: (65762) : S -> 0x(f0) at (0x7fffffffecd0) -- Size = (8) 

-- ISN: (65732) : L from (0x6bc401) -- of Size = (1) 

-- ISN: (65765) : S -> 0x(62) at (0x7fffffffeccc) -- Size = (4) 

-- ISN: (65767) : L from (0x7fffffffeccc) -- of Size = (4) 

-- ISN: (65772) : L from (0x7fffffffeccc) -- of Size = (4) 

-- ISN: (65788) : L from (0x7fffffffecd0) -- of Size = (8) 

-- ISN: (65791) : L from (0x7fffffffecd8) -- of Size = (8) 

-- ISN: (65737) : S -> 0x(0) at (0x6bc404) -- Size = (4) 

-- ISN: (65795) : L from (0x7fffffffecec) -- of Size = (4) 

-- ISN: (65777) : L from (0x6bc5a8) -- of Size = (4) 

-- ISN: (65797) : S -> 0x(63) at (0x7fffffffecec) -- Size = (4) 

-- ISN: (65808) : S -> 0x(34) at (0x7fffffffecd8) -- Size = (8) 

-- ISN: (65799) : L from (0x7fffffffecec) -- of Size = (4) 

-- ISN: (65804) : L from (0x7fffffffecec) -- of Size = (4) 

-- ISN: (65811) : S -> 0x(f0) at (0x7fffffffecd0) -- Size = (8) 

-- ISN: (65781) : L from (0x6bc402) -- of Size = (1) 

-- ISN: (65814) : S -> 0x(63) at (0x7fffffffeccc) -- Size = (4) 

-- ISN: (65816) : L from (0x7fffffffeccc) -- of Size = (4) 

-- ISN: (65821) : L from (0x7fffffffeccc) -- of Size = (4) 

-- ISN: (65837) : L from (0x7fffffffecd0) -- of Size = (8) 

-- ISN: (65840) : L from (0x7fffffffecd8) -- of Size = (8) 

-- ISN: (65786) : S -> 0x(0) at (0x6bc404) -- Size = (4) 

-- ISN: (65844) : L from (0x7fffffffecec) -- of Size = (4) 

-- ISN: (65826) : L from (0x6bc5ac) -- of Size = (4) 

-- ISN: (65846) : S -> 0x(64) at (0x7fffffffecec) -- Size = (4) 

-- ISN: (65857) : S -> 0x(34) at (0x7fffffffecd8) -- Size = (8) 

-- ISN: (65848) : L from (0x7fffffffecec) -- of Size = (4) 

-- ISN: (65853) : L from (0x7fffffffecec) -- of Size = (4) 

-- ISN: (65860) : S -> 0x(f0) at (0x7fffffffecd0) -- Size = (8) 

-- ISN: (65830) : L from (0x6bc403) -- of Size = (1) 

-- ISN: (65863) : S -> 0x(64) at (0x7fffffffeccc) -- Size = (4) 

-- ISN: (65865) : L from (0x7fffffffeccc) -- of Size = (4) 

-- ISN: (65870) : L from (0x7fffffffeccc) -- of Size = (4) 

-- ISN: (65886) : L from (0x7fffffffecd0) -- of Size = (8) 

-- Sqsh -> ISN (65852)

-- ISN: (65835) : S -> 0x(0) at (0x6bc404) -- Size = (4) 

-- ISN: (65912) : S -> 0x(48) at (0x7fffffffecd8) -- Size = (8) 

-- ISN: (65918) : S -> 0x(52) at (0x7fffffffecd0) -- Size = (8) 

-- Sqsh -> ISN (65914)

-- ISN: (65988) : S -> 0x(f0) at (0x7fffffffecd0) -- Size = (8) 

-- ISN: (65991) : S -> 0x(69) at (0x7fffffffeccc) -- Size = (4) 

-- ISN: (65993) : L from (0x7fffffffeccc) -- of Size = (4) 

-- ISN: (65998) : L from (0x7fffffffeccc) -- of Size = (4) 

-- ISN: (66014) : L from (0x7fffffffecd0) -- of Size = (8) 

-- ISN: (66017) : L from (0x7fffffffecd8) -- of Size = (8) 

-- ISN: (66023) : S -> 0x(52) at (0x7fffffffecd8) -- Size = (8) 

-- ISN: (66003) : L from (0x6bc5c4) -- of Size = (4)

-- Sqsh -> ISN (65997)

-- ISN: (66073) : L from (0x7fffffffecd0) -- of Size = (8) 

-- ISN: (66076) : L from (0x7fffffffecd8) -- of Size = (8) 

-- ISN: (66082) : S -> 0x(52) at (0x7fffffffecd8) -- Size = (8) 

-- ISN: (66089) : S -> 0x(61) at (0x7fffffffecd0) -- Size = (8) 

-- Sqsh -> ISN (66084)

-- ISN: (66132) : L from (0x7fffffffecd8) -- of Size = (8) 

HERE 2 : enable_memreq_tracing = 0
Exiting @ tick 34498500 because exiting with last active thread context
