gem5 Simulator System.  http://gem5.org
gem5 is copyrighted software; use the --copyright option for details.

gem5 compiled Feb 25 2020 19:15:33
gem5 started Feb 26 2020 00:04:12
gem5 executing on tarun-s, pid 2828
command line: build/X86/gem5.opt configs/example/se.py --cmd=/home/tarun/Desktop/gem5/tests/my_progs/spectre_test_forloop_linked --cpu-type=DerivO3CPU --caches

Global frequency set at 1000000000000 ticks per second
**** REAL SIMULATION ****
HERE 1 : enable_memreq_tracing = 1

===================== pushRequest in lsq_impl.hh ==================
===================== Load from Address = 0x7fffffffeccc ==================
===================== Size = 4 ==================

===================== pushRequest in lsq_impl.hh ==================
===================== Store at Address = 0x7fffffffecd0 ==================
===================== Store Data = 1 ==================
===================== Size = 4 ==================

===================== pushRequest in lsq_impl.hh ==================
===================== Load from Address = 0x7fffffffecd0 ==================
===================== Size = 4 ==================

===================== pushRequest in lsq_impl.hh ==================
===================== Load from Address = 0x7fffffffecd0 ==================
===================== Size = 4 ==================
==== squash instn in lsq_unit_impl.hh = 31002 ---------

===================== pushRequest in lsq_impl.hh ==================
===================== Load from Address = 0x7fffffffecd0 ==================
===================== Size = 4 ==================

===================== pushRequest in lsq_impl.hh ==================
===================== Store at Address = 0x7fffffffecb8 ==================
===================== Store Data = a7 ==================
===================== Size = 8 ==================

===================== pushRequest in lsq_impl.hh ==================
===================== Store at Address = 0x7fffffffecb0 ==================
===================== Store Data = b6 ==================
===================== Size = 8 ==================

===================== pushRequest in lsq_impl.hh ==================
===================== Load from Address = 0x7fffffffecd8 ==================
===================== Size = 8 ==================

===================== pushRequest in lsq_impl.hh ==================
===================== Load from Address = 0x6bd8a8 ==================
===================== Size = 8 ==================
==== squash instn in lsq_unit_impl.hh = 31068 ---------
==== squash instn in lsq_unit_impl.hh = 31062 ---------

===================== pushRequest in lsq_impl.hh ==================
===================== Load from Address = 0x7fffffffeccc ==================
===================== Size = 4 ==================

===================== pushRequest in lsq_impl.hh ==================
===================== Load from Address = 0x7fffffffecd0 ==================
===================== Size = 4 ==================

===================== pushRequest in lsq_impl.hh ==================
===================== Load from Address = 0x7fffffffecd0 ==================
===================== Size = 4 ==================

===================== pushRequest in lsq_impl.hh ==================
===================== Store at Address = 0x7fffffffecd4 ==================
===================== Store Data = f0 ==================
===================== Size = 4 ==================

===================== pushRequest in lsq_impl.hh ==================
===================== Store at Address = 0x7fffffffecb8 ==================
===================== Store Data = a7 ==================
===================== Size = 8 ==================
==== squash instn in lsq_unit_impl.hh = 31133 ---------

===================== pushRequest in lsq_impl.hh ==================
===================== Load from Address = 0x7fffffffecd0 ==================
===================== Size = 4 ==================

===================== pushRequest in lsq_impl.hh ==================
===================== Load from Address = 0x7fffffffecd0 ==================
===================== Size = 4 ==================

===================== pushRequest in lsq_impl.hh ==================
===================== Store at Address = 0x7fffffffecd0 ==================
===================== Store Data = 2 ==================
===================== Size = 4 ==================

===================== pushRequest in lsq_impl.hh ==================
===================== Store at Address = 0x7fffffffecb8 ==================
===================== Store Data = a7 ==================
===================== Size = 8 ==================

===================== pushRequest in lsq_impl.hh ==================
===================== Store at Address = 0x7fffffffecb0 ==================
===================== Store Data = b6 ==================
===================== Size = 8 ==================
==== squash instn in lsq_unit_impl.hh = 31214 ---------

===================== pushRequest in lsq_impl.hh ==================
===================== Load from Address = 0x7fffffffecd0 ==================
===================== Size = 4 ==================

===================== pushRequest in lsq_impl.hh ==================
===================== Store at Address = 0x7fffffffecb8 ==================
===================== Store Data = a7 ==================
===================== Size = 8 ==================

===================== pushRequest in lsq_impl.hh ==================
===================== Store at Address = 0x7fffffffecb0 ==================
===================== Store Data = b6 ==================
===================== Size = 8 ==================
==== squash instn in lsq_unit_impl.hh = 31292 ---------

===================== pushRequest in lsq_impl.hh ==================
===================== Load from Address = 0x7fffffffeccc ==================
===================== Size = 4 ==================

===================== pushRequest in lsq_impl.hh ==================
===================== Store at Address = 0x7fffffffecd4 ==================
===================== Store Data = f0 ==================
===================== Size = 4 ==================

===================== pushRequest in lsq_impl.hh ==================
===================== Store at Address = 0x7fffffffecb8 ==================
===================== Store Data = a7 ==================
===================== Size = 8 ==================

===================== pushRequest in lsq_impl.hh ==================
===================== Load from Address = 0x7fffffffecd0 ==================
===================== Size = 4 ==================

===================== pushRequest in lsq_impl.hh ==================
===================== Store at Address = 0x7fffffffecb0 ==================
===================== Store Data = b6 ==================
===================== Size = 8 ==================
==== squash instn in lsq_unit_impl.hh = 31375 ---------

===================== pushRequest in lsq_impl.hh ==================
===================== Store at Address = 0x7fffffffecd0 ==================
===================== Store Data = 3 ==================
===================== Size = 4 ==================

===================== pushRequest in lsq_impl.hh ==================
===================== Load from Address = 0x7fffffffecd0 ==================
===================== Size = 4 ==================
==== squash instn in lsq_unit_impl.hh = 31369 ---------

===================== pushRequest in lsq_impl.hh ==================
===================== Load from Address = 0x7fffffffeccc ==================
===================== Size = 4 ==================

===================== pushRequest in lsq_impl.hh ==================
===================== Load from Address = 0x7fffffffeccc ==================
===================== Size = 4 ==================

===================== pushRequest in lsq_impl.hh ==================
===================== Store at Address = 0x7fffffffecd4 ==================
===================== Store Data = f0 ==================
===================== Size = 4 ==================

===================== pushRequest in lsq_impl.hh ==================
===================== Load from Address = 0x7fffffffecd0 ==================
===================== Size = 4 ==================

===================== pushRequest in lsq_impl.hh ==================
===================== Load from Address = 0x7fffffffeccc ==================
===================== Size = 4 ==================

===================== pushRequest in lsq_impl.hh ==================
===================== Load from Address = 0x7fffffffeccc ==================
===================== Size = 4 ==================

===================== pushRequest in lsq_impl.hh ==================
===================== Load from Address = 0x7fffffffeccc ==================
===================== Size = 4 ==================

===================== pushRequest in lsq_impl.hh ==================
===================== Store at Address = 0x7fffffffecd0 ==================
===================== Store Data = 4 ==================
===================== Size = 4 ==================

===================== pushRequest in lsq_impl.hh ==================
===================== Load from Address = 0x7fffffffeccc ==================
===================== Size = 4 ==================

===================== pushRequest in lsq_impl.hh ==================
===================== Load from Address = 0x7fffffffecd0 ==================
===================== Size = 4 ==================

===================== pushRequest in lsq_impl.hh ==================
===================== Store at Address = 0x7fffffffecd4 ==================
===================== Store Data = f0 ==================
===================== Size = 4 ==================

===================== pushRequest in lsq_impl.hh ==================
===================== Load from Address = 0x7fffffffecd0 ==================
===================== Size = 4 ==================

===================== pushRequest in lsq_impl.hh ==================
===================== Load from Address = 0x7fffffffeccc ==================
===================== Size = 4 ==================

===================== pushRequest in lsq_impl.hh ==================
===================== Load from Address = 0x7fffffffeccc ==================
===================== Size = 4 ==================

===================== pushRequest in lsq_impl.hh ==================
===================== Store at Address = 0x7fffffffecd0 ==================
===================== Store Data = 5 ==================
===================== Size = 4 ==================

===================== pushRequest in lsq_impl.hh ==================
===================== Load from Address = 0x7fffffffecd0 ==================
===================== Size = 4 ==================

===================== pushRequest in lsq_impl.hh ==================
===================== Store at Address = 0x7fffffffecd4 ==================
===================== Store Data = f0 ==================
===================== Size = 4 ==================

===================== pushRequest in lsq_impl.hh ==================
===================== Load from Address = 0x7fffffffeccc ==================
===================== Size = 4 ==================

===================== pushRequest in lsq_impl.hh ==================
===================== Load from Address = 0x7fffffffecd0 ==================
===================== Size = 4 ==================

===================== pushRequest in lsq_impl.hh ==================
===================== Load from Address = 0x7fffffffeccc ==================
===================== Size = 4 ==================

===================== pushRequest in lsq_impl.hh ==================
===================== Store at Address = 0x7fffffffecd0 ==================
===================== Store Data = 6 ==================
===================== Size = 4 ==================

===================== pushRequest in lsq_impl.hh ==================
===================== Load from Address = 0x7fffffffecd0 ==================
===================== Size = 4 ==================

===================== pushRequest in lsq_impl.hh ==================
===================== Store at Address = 0x7fffffffecd4 ==================
===================== Store Data = f0 ==================
===================== Size = 4 ==================

===================== pushRequest in lsq_impl.hh ==================
===================== Load from Address = 0x7fffffffecd0 ==================
===================== Size = 4 ==================

===================== pushRequest in lsq_impl.hh ==================
===================== Load from Address = 0x7fffffffeccc ==================
===================== Size = 4 ==================

===================== pushRequest in lsq_impl.hh ==================
===================== Store at Address = 0x7fffffffecd0 ==================
===================== Store Data = 7 ==================
===================== Size = 4 ==================

===================== pushRequest in lsq_impl.hh ==================
===================== Load from Address = 0x7fffffffecd0 ==================
===================== Size = 4 ==================

===================== pushRequest in lsq_impl.hh ==================
===================== Store at Address = 0x7fffffffecd4 ==================
===================== Store Data = f0 ==================
===================== Size = 4 ==================

===================== pushRequest in lsq_impl.hh ==================
===================== Load from Address = 0x7fffffffeccc ==================
===================== Size = 4 ==================

===================== pushRequest in lsq_impl.hh ==================
===================== Load from Address = 0x7fffffffecd0 ==================
===================== Size = 4 ==================

===================== pushRequest in lsq_impl.hh ==================
===================== Load from Address = 0x7fffffffeccc ==================
===================== Size = 4 ==================

===================== pushRequest in lsq_impl.hh ==================
===================== Store at Address = 0x7fffffffecd0 ==================
===================== Store Data = 8 ==================
===================== Size = 4 ==================

===================== pushRequest in lsq_impl.hh ==================
===================== Load from Address = 0x7fffffffecd0 ==================
===================== Size = 4 ==================

===================== pushRequest in lsq_impl.hh ==================
===================== Store at Address = 0x7fffffffecd4 ==================
===================== Store Data = f0 ==================
===================== Size = 4 ==================

===================== pushRequest in lsq_impl.hh ==================
===================== Load from Address = 0x7fffffffecd0 ==================
===================== Size = 4 ==================

===================== pushRequest in lsq_impl.hh ==================
===================== Store at Address = 0x7fffffffecd0 ==================
===================== Store Data = 9 ==================
===================== Size = 4 ==================

===================== pushRequest in lsq_impl.hh ==================
===================== Load from Address = 0x7fffffffeccc ==================
===================== Size = 4 ==================

===================== pushRequest in lsq_impl.hh ==================
===================== Load from Address = 0x7fffffffecd0 ==================
===================== Size = 4 ==================

===================== pushRequest in lsq_impl.hh ==================
===================== Store at Address = 0x7fffffffecd4 ==================
===================== Store Data = f0 ==================
===================== Size = 4 ==================

===================== pushRequest in lsq_impl.hh ==================
===================== Load from Address = 0x7fffffffecd0 ==================
===================== Size = 4 ==================

===================== pushRequest in lsq_impl.hh ==================
===================== Load from Address = 0x7fffffffeccc ==================
===================== Size = 4 ==================

===================== pushRequest in lsq_impl.hh ==================
===================== Store at Address = 0x7fffffffecd0 ==================
===================== Store Data = a ==================
===================== Size = 4 ==================

===================== pushRequest in lsq_impl.hh ==================
===================== Load from Address = 0x7fffffffecd0 ==================
===================== Size = 4 ==================

===================== pushRequest in lsq_impl.hh ==================
===================== Store at Address = 0x7fffffffecd4 ==================
===================== Store Data = f0 ==================
===================== Size = 4 ==================

===================== pushRequest in lsq_impl.hh ==================
===================== Load from Address = 0x7fffffffecd0 ==================
===================== Size = 4 ==================

===================== pushRequest in lsq_impl.hh ==================
===================== Load from Address = 0x7fffffffeccc ==================
===================== Size = 4 ==================

===================== pushRequest in lsq_impl.hh ==================
===================== Store at Address = 0x7fffffffecd0 ==================
===================== Store Data = b ==================
===================== Size = 4 ==================

===================== pushRequest in lsq_impl.hh ==================
===================== Load from Address = 0x7fffffffecd0 ==================
===================== Size = 4 ==================

===================== pushRequest in lsq_impl.hh ==================
===================== Store at Address = 0x7fffffffecd4 ==================
===================== Store Data = f0 ==================
===================== Size = 4 ==================

===================== pushRequest in lsq_impl.hh ==================
===================== Load from Address = 0x7fffffffecd0 ==================
===================== Size = 4 ==================

===================== pushRequest in lsq_impl.hh ==================
===================== Load from Address = 0x7fffffffeccc ==================
===================== Size = 4 ==================

===================== pushRequest in lsq_impl.hh ==================
===================== Store at Address = 0x7fffffffecd0 ==================
===================== Store Data = c ==================
===================== Size = 4 ==================

===================== pushRequest in lsq_impl.hh ==================
===================== Load from Address = 0x7fffffffecd0 ==================
===================== Size = 4 ==================

===================== pushRequest in lsq_impl.hh ==================
===================== Store at Address = 0x7fffffffecd4 ==================
===================== Store Data = f0 ==================
===================== Size = 4 ==================

===================== pushRequest in lsq_impl.hh ==================
===================== Load from Address = 0x7fffffffecd0 ==================
===================== Size = 4 ==================

===================== pushRequest in lsq_impl.hh ==================
===================== Load from Address = 0x7fffffffeccc ==================
===================== Size = 4 ==================

===================== pushRequest in lsq_impl.hh ==================
===================== Store at Address = 0x7fffffffecd0 ==================
===================== Store Data = d ==================
===================== Size = 4 ==================

===================== pushRequest in lsq_impl.hh ==================
===================== Load from Address = 0x7fffffffecd0 ==================
===================== Size = 4 ==================

===================== pushRequest in lsq_impl.hh ==================
===================== Store at Address = 0x7fffffffecd4 ==================
===================== Store Data = f0 ==================
===================== Size = 4 ==================

===================== pushRequest in lsq_impl.hh ==================
===================== Load from Address = 0x7fffffffecd0 ==================
===================== Size = 4 ==================

===================== pushRequest in lsq_impl.hh ==================
===================== Load from Address = 0x7fffffffeccc ==================
===================== Size = 4 ==================

===================== pushRequest in lsq_impl.hh ==================
===================== Store at Address = 0x7fffffffecd0 ==================
===================== Store Data = e ==================
===================== Size = 4 ==================

===================== pushRequest in lsq_impl.hh ==================
===================== Load from Address = 0x7fffffffecd0 ==================
===================== Size = 4 ==================

===================== pushRequest in lsq_impl.hh ==================
===================== Store at Address = 0x7fffffffecd4 ==================
===================== Store Data = f0 ==================
===================== Size = 4 ==================

===================== pushRequest in lsq_impl.hh ==================
===================== Load from Address = 0x7fffffffecd0 ==================
===================== Size = 4 ==================

===================== pushRequest in lsq_impl.hh ==================
===================== Load from Address = 0x7fffffffeccc ==================
===================== Size = 4 ==================

===================== pushRequest in lsq_impl.hh ==================
===================== Store at Address = 0x7fffffffecd0 ==================
===================== Store Data = f ==================
===================== Size = 4 ==================

===================== pushRequest in lsq_impl.hh ==================
===================== Load from Address = 0x7fffffffecd0 ==================
===================== Size = 4 ==================

===================== pushRequest in lsq_impl.hh ==================
===================== Store at Address = 0x7fffffffecd4 ==================
===================== Store Data = f0 ==================
===================== Size = 4 ==================

===================== pushRequest in lsq_impl.hh ==================
===================== Load from Address = 0x7fffffffecd0 ==================
===================== Size = 4 ==================

===================== pushRequest in lsq_impl.hh ==================
===================== Load from Address = 0x7fffffffeccc ==================
===================== Size = 4 ==================

===================== pushRequest in lsq_impl.hh ==================
===================== Store at Address = 0x7fffffffecd0 ==================
===================== Store Data = 10 ==================
===================== Size = 4 ==================

===================== pushRequest in lsq_impl.hh ==================
===================== Load from Address = 0x7fffffffecd0 ==================
===================== Size = 4 ==================

===================== pushRequest in lsq_impl.hh ==================
===================== Store at Address = 0x7fffffffecd4 ==================
===================== Store Data = f0 ==================
===================== Size = 4 ==================

===================== pushRequest in lsq_impl.hh ==================
===================== Load from Address = 0x7fffffffecd0 ==================
===================== Size = 4 ==================

===================== pushRequest in lsq_impl.hh ==================
===================== Load from Address = 0x7fffffffeccc ==================
===================== Size = 4 ==================

===================== pushRequest in lsq_impl.hh ==================
===================== Store at Address = 0x7fffffffecd0 ==================
===================== Store Data = 11 ==================
===================== Size = 4 ==================

===================== pushRequest in lsq_impl.hh ==================
===================== Load from Address = 0x7fffffffecd0 ==================
===================== Size = 4 ==================

===================== pushRequest in lsq_impl.hh ==================
===================== Store at Address = 0x7fffffffecd4 ==================
===================== Store Data = f0 ==================
===================== Size = 4 ==================

===================== pushRequest in lsq_impl.hh ==================
===================== Load from Address = 0x7fffffffecd0 ==================
===================== Size = 4 ==================

===================== pushRequest in lsq_impl.hh ==================
===================== Load from Address = 0x7fffffffeccc ==================
===================== Size = 4 ==================

===================== pushRequest in lsq_impl.hh ==================
===================== Store at Address = 0x7fffffffecd0 ==================
===================== Store Data = 12 ==================
===================== Size = 4 ==================

===================== pushRequest in lsq_impl.hh ==================
===================== Load from Address = 0x7fffffffecd0 ==================
===================== Size = 4 ==================

===================== pushRequest in lsq_impl.hh ==================
===================== Store at Address = 0x7fffffffecd4 ==================
===================== Store Data = f0 ==================
===================== Size = 4 ==================

===================== pushRequest in lsq_impl.hh ==================
===================== Load from Address = 0x7fffffffecd0 ==================
===================== Size = 4 ==================

===================== pushRequest in lsq_impl.hh ==================
===================== Load from Address = 0x7fffffffeccc ==================
===================== Size = 4 ==================

===================== pushRequest in lsq_impl.hh ==================
===================== Store at Address = 0x7fffffffecd0 ==================
===================== Store Data = 13 ==================
===================== Size = 4 ==================

===================== pushRequest in lsq_impl.hh ==================
===================== Load from Address = 0x7fffffffecd0 ==================
===================== Size = 4 ==================

===================== pushRequest in lsq_impl.hh ==================
===================== Store at Address = 0x7fffffffecd4 ==================
===================== Store Data = f0 ==================
===================== Size = 4 ==================

===================== pushRequest in lsq_impl.hh ==================
===================== Load from Address = 0x7fffffffecd0 ==================
===================== Size = 4 ==================

===================== pushRequest in lsq_impl.hh ==================
===================== Load from Address = 0x7fffffffeccc ==================
===================== Size = 4 ==================

===================== pushRequest in lsq_impl.hh ==================
===================== Store at Address = 0x7fffffffecd0 ==================
===================== Store Data = 14 ==================
===================== Size = 4 ==================

===================== pushRequest in lsq_impl.hh ==================
===================== Load from Address = 0x7fffffffecd0 ==================
===================== Size = 4 ==================

===================== pushRequest in lsq_impl.hh ==================
===================== Store at Address = 0x7fffffffecd4 ==================
===================== Store Data = f0 ==================
===================== Size = 4 ==================

===================== pushRequest in lsq_impl.hh ==================
===================== Load from Address = 0x7fffffffecd0 ==================
===================== Size = 4 ==================

===================== pushRequest in lsq_impl.hh ==================
===================== Load from Address = 0x7fffffffeccc ==================
===================== Size = 4 ==================

===================== pushRequest in lsq_impl.hh ==================
===================== Store at Address = 0x7fffffffecd0 ==================
===================== Store Data = 15 ==================
===================== Size = 4 ==================

===================== pushRequest in lsq_impl.hh ==================
===================== Load from Address = 0x7fffffffecd0 ==================
===================== Size = 4 ==================

===================== pushRequest in lsq_impl.hh ==================
===================== Store at Address = 0x7fffffffecd4 ==================
===================== Store Data = f0 ==================
===================== Size = 4 ==================

===================== pushRequest in lsq_impl.hh ==================
===================== Load from Address = 0x7fffffffecd0 ==================
===================== Size = 4 ==================

===================== pushRequest in lsq_impl.hh ==================
===================== Load from Address = 0x7fffffffeccc ==================
===================== Size = 4 ==================

===================== pushRequest in lsq_impl.hh ==================
===================== Store at Address = 0x7fffffffecd0 ==================
===================== Store Data = 16 ==================
===================== Size = 4 ==================

===================== pushRequest in lsq_impl.hh ==================
===================== Load from Address = 0x7fffffffecd0 ==================
===================== Size = 4 ==================

===================== pushRequest in lsq_impl.hh ==================
===================== Store at Address = 0x7fffffffecd4 ==================
===================== Store Data = f0 ==================
===================== Size = 4 ==================

===================== pushRequest in lsq_impl.hh ==================
===================== Load from Address = 0x7fffffffecd0 ==================
===================== Size = 4 ==================

===================== pushRequest in lsq_impl.hh ==================
===================== Load from Address = 0x7fffffffeccc ==================
===================== Size = 4 ==================

===================== pushRequest in lsq_impl.hh ==================
===================== Store at Address = 0x7fffffffecd0 ==================
===================== Store Data = 17 ==================
===================== Size = 4 ==================

===================== pushRequest in lsq_impl.hh ==================
===================== Load from Address = 0x7fffffffecd0 ==================
===================== Size = 4 ==================

===================== pushRequest in lsq_impl.hh ==================
===================== Store at Address = 0x7fffffffecd4 ==================
===================== Store Data = f0 ==================
===================== Size = 4 ==================

===================== pushRequest in lsq_impl.hh ==================
===================== Load from Address = 0x7fffffffecd0 ==================
===================== Size = 4 ==================

===================== pushRequest in lsq_impl.hh ==================
===================== Load from Address = 0x7fffffffeccc ==================
===================== Size = 4 ==================

===================== pushRequest in lsq_impl.hh ==================
===================== Store at Address = 0x7fffffffecd0 ==================
===================== Store Data = 18 ==================
===================== Size = 4 ==================

===================== pushRequest in lsq_impl.hh ==================
===================== Load from Address = 0x7fffffffecd0 ==================
===================== Size = 4 ==================

===================== pushRequest in lsq_impl.hh ==================
===================== Store at Address = 0x7fffffffecd4 ==================
===================== Store Data = f0 ==================
===================== Size = 4 ==================

===================== pushRequest in lsq_impl.hh ==================
===================== Load from Address = 0x7fffffffecd0 ==================
===================== Size = 4 ==================

===================== pushRequest in lsq_impl.hh ==================
===================== Load from Address = 0x7fffffffeccc ==================
===================== Size = 4 ==================

===================== pushRequest in lsq_impl.hh ==================
===================== Store at Address = 0x7fffffffecd0 ==================
===================== Store Data = 19 ==================
===================== Size = 4 ==================

===================== pushRequest in lsq_impl.hh ==================
===================== Load from Address = 0x7fffffffecd0 ==================
===================== Size = 4 ==================

===================== pushRequest in lsq_impl.hh ==================
===================== Store at Address = 0x7fffffffecd4 ==================
===================== Store Data = f0 ==================
===================== Size = 4 ==================

===================== pushRequest in lsq_impl.hh ==================
===================== Load from Address = 0x7fffffffecd0 ==================
===================== Size = 4 ==================

===================== pushRequest in lsq_impl.hh ==================
===================== Load from Address = 0x7fffffffeccc ==================
===================== Size = 4 ==================

===================== pushRequest in lsq_impl.hh ==================
===================== Store at Address = 0x7fffffffecd0 ==================
===================== Store Data = 1a ==================
===================== Size = 4 ==================

===================== pushRequest in lsq_impl.hh ==================
===================== Load from Address = 0x7fffffffecd0 ==================
===================== Size = 4 ==================

===================== pushRequest in lsq_impl.hh ==================
===================== Store at Address = 0x7fffffffecd4 ==================
===================== Store Data = f0 ==================
===================== Size = 4 ==================

===================== pushRequest in lsq_impl.hh ==================
===================== Load from Address = 0x7fffffffecd0 ==================
===================== Size = 4 ==================

===================== pushRequest in lsq_impl.hh ==================
===================== Load from Address = 0x7fffffffeccc ==================
===================== Size = 4 ==================

===================== pushRequest in lsq_impl.hh ==================
===================== Store at Address = 0x7fffffffecd0 ==================
===================== Store Data = 1b ==================
===================== Size = 4 ==================

===================== pushRequest in lsq_impl.hh ==================
===================== Load from Address = 0x7fffffffecd0 ==================
===================== Size = 4 ==================

===================== pushRequest in lsq_impl.hh ==================
===================== Store at Address = 0x7fffffffecd4 ==================
===================== Store Data = f0 ==================
===================== Size = 4 ==================

===================== pushRequest in lsq_impl.hh ==================
===================== Load from Address = 0x7fffffffecd0 ==================
===================== Size = 4 ==================

===================== pushRequest in lsq_impl.hh ==================
===================== Load from Address = 0x7fffffffeccc ==================
===================== Size = 4 ==================

===================== pushRequest in lsq_impl.hh ==================
===================== Store at Address = 0x7fffffffecd0 ==================
===================== Store Data = 1c ==================
===================== Size = 4 ==================

===================== pushRequest in lsq_impl.hh ==================
===================== Load from Address = 0x7fffffffecd0 ==================
===================== Size = 4 ==================

===================== pushRequest in lsq_impl.hh ==================
===================== Store at Address = 0x7fffffffecd4 ==================
===================== Store Data = f0 ==================
===================== Size = 4 ==================

===================== pushRequest in lsq_impl.hh ==================
===================== Load from Address = 0x7fffffffecd0 ==================
===================== Size = 4 ==================

===================== pushRequest in lsq_impl.hh ==================
===================== Load from Address = 0x7fffffffeccc ==================
===================== Size = 4 ==================

===================== pushRequest in lsq_impl.hh ==================
===================== Store at Address = 0x7fffffffecd0 ==================
===================== Store Data = 1d ==================
===================== Size = 4 ==================

===================== pushRequest in lsq_impl.hh ==================
===================== Load from Address = 0x7fffffffecd0 ==================
===================== Size = 4 ==================

===================== pushRequest in lsq_impl.hh ==================
===================== Store at Address = 0x7fffffffecd4 ==================
===================== Store Data = f0 ==================
===================== Size = 4 ==================

===================== pushRequest in lsq_impl.hh ==================
===================== Load from Address = 0x7fffffffecd0 ==================
===================== Size = 4 ==================

===================== pushRequest in lsq_impl.hh ==================
===================== Load from Address = 0x7fffffffeccc ==================
===================== Size = 4 ==================

===================== pushRequest in lsq_impl.hh ==================
===================== Store at Address = 0x7fffffffecd0 ==================
===================== Store Data = 1e ==================
===================== Size = 4 ==================

===================== pushRequest in lsq_impl.hh ==================
===================== Load from Address = 0x7fffffffecd0 ==================
===================== Size = 4 ==================

===================== pushRequest in lsq_impl.hh ==================
===================== Store at Address = 0x7fffffffecd4 ==================
===================== Store Data = f0 ==================
===================== Size = 4 ==================

===================== pushRequest in lsq_impl.hh ==================
===================== Load from Address = 0x7fffffffecd0 ==================
===================== Size = 4 ==================

===================== pushRequest in lsq_impl.hh ==================
===================== Load from Address = 0x7fffffffeccc ==================
===================== Size = 4 ==================

===================== pushRequest in lsq_impl.hh ==================
===================== Store at Address = 0x7fffffffecd0 ==================
===================== Store Data = 1f ==================
===================== Size = 4 ==================

===================== pushRequest in lsq_impl.hh ==================
===================== Load from Address = 0x7fffffffecd0 ==================
===================== Size = 4 ==================

===================== pushRequest in lsq_impl.hh ==================
===================== Store at Address = 0x7fffffffecd4 ==================
===================== Store Data = f0 ==================
===================== Size = 4 ==================

===================== pushRequest in lsq_impl.hh ==================
===================== Load from Address = 0x7fffffffecd0 ==================
===================== Size = 4 ==================

===================== pushRequest in lsq_impl.hh ==================
===================== Load from Address = 0x7fffffffeccc ==================
===================== Size = 4 ==================

===================== pushRequest in lsq_impl.hh ==================
===================== Store at Address = 0x7fffffffecd0 ==================
===================== Store Data = 20 ==================
===================== Size = 4 ==================

===================== pushRequest in lsq_impl.hh ==================
===================== Load from Address = 0x7fffffffecd0 ==================
===================== Size = 4 ==================

===================== pushRequest in lsq_impl.hh ==================
===================== Store at Address = 0x7fffffffecd4 ==================
===================== Store Data = f0 ==================
===================== Size = 4 ==================

===================== pushRequest in lsq_impl.hh ==================
===================== Load from Address = 0x7fffffffecd0 ==================
===================== Size = 4 ==================

===================== pushRequest in lsq_impl.hh ==================
===================== Load from Address = 0x7fffffffeccc ==================
===================== Size = 4 ==================

===================== pushRequest in lsq_impl.hh ==================
===================== Store at Address = 0x7fffffffecd0 ==================
===================== Store Data = 21 ==================
===================== Size = 4 ==================

===================== pushRequest in lsq_impl.hh ==================
===================== Load from Address = 0x7fffffffecd0 ==================
===================== Size = 4 ==================

===================== pushRequest in lsq_impl.hh ==================
===================== Store at Address = 0x7fffffffecd4 ==================
===================== Store Data = f0 ==================
===================== Size = 4 ==================

===================== pushRequest in lsq_impl.hh ==================
===================== Load from Address = 0x7fffffffecd0 ==================
===================== Size = 4 ==================

===================== pushRequest in lsq_impl.hh ==================
===================== Load from Address = 0x7fffffffeccc ==================
===================== Size = 4 ==================

===================== pushRequest in lsq_impl.hh ==================
===================== Store at Address = 0x7fffffffecd0 ==================
===================== Store Data = 22 ==================
===================== Size = 4 ==================

===================== pushRequest in lsq_impl.hh ==================
===================== Load from Address = 0x7fffffffecd0 ==================
===================== Size = 4 ==================

===================== pushRequest in lsq_impl.hh ==================
===================== Store at Address = 0x7fffffffecd4 ==================
===================== Store Data = f0 ==================
===================== Size = 4 ==================

===================== pushRequest in lsq_impl.hh ==================
===================== Load from Address = 0x7fffffffecd0 ==================
===================== Size = 4 ==================

===================== pushRequest in lsq_impl.hh ==================
===================== Load from Address = 0x7fffffffeccc ==================
===================== Size = 4 ==================

===================== pushRequest in lsq_impl.hh ==================
===================== Store at Address = 0x7fffffffecd0 ==================
===================== Store Data = 23 ==================
===================== Size = 4 ==================

===================== pushRequest in lsq_impl.hh ==================
===================== Load from Address = 0x7fffffffecd0 ==================
===================== Size = 4 ==================

===================== pushRequest in lsq_impl.hh ==================
===================== Store at Address = 0x7fffffffecd4 ==================
===================== Store Data = f0 ==================
===================== Size = 4 ==================

===================== pushRequest in lsq_impl.hh ==================
===================== Load from Address = 0x7fffffffecd0 ==================
===================== Size = 4 ==================

===================== pushRequest in lsq_impl.hh ==================
===================== Load from Address = 0x7fffffffeccc ==================
===================== Size = 4 ==================

===================== pushRequest in lsq_impl.hh ==================
===================== Store at Address = 0x7fffffffecd0 ==================
===================== Store Data = 24 ==================
===================== Size = 4 ==================

===================== pushRequest in lsq_impl.hh ==================
===================== Load from Address = 0x7fffffffecd0 ==================
===================== Size = 4 ==================

===================== pushRequest in lsq_impl.hh ==================
===================== Store at Address = 0x7fffffffecd4 ==================
===================== Store Data = f0 ==================
===================== Size = 4 ==================

===================== pushRequest in lsq_impl.hh ==================
===================== Load from Address = 0x7fffffffecd0 ==================
===================== Size = 4 ==================

===================== pushRequest in lsq_impl.hh ==================
===================== Load from Address = 0x7fffffffeccc ==================
===================== Size = 4 ==================

===================== pushRequest in lsq_impl.hh ==================
===================== Store at Address = 0x7fffffffecd0 ==================
===================== Store Data = 25 ==================
===================== Size = 4 ==================

===================== pushRequest in lsq_impl.hh ==================
===================== Load from Address = 0x7fffffffecd0 ==================
===================== Size = 4 ==================

===================== pushRequest in lsq_impl.hh ==================
===================== Store at Address = 0x7fffffffecd4 ==================
===================== Store Data = f0 ==================
===================== Size = 4 ==================

===================== pushRequest in lsq_impl.hh ==================
===================== Load from Address = 0x7fffffffecd0 ==================
===================== Size = 4 ==================

===================== pushRequest in lsq_impl.hh ==================
===================== Load from Address = 0x7fffffffeccc ==================
===================== Size = 4 ==================

===================== pushRequest in lsq_impl.hh ==================
===================== Store at Address = 0x7fffffffecd0 ==================
===================== Store Data = 26 ==================
===================== Size = 4 ==================

===================== pushRequest in lsq_impl.hh ==================
===================== Load from Address = 0x7fffffffecd0 ==================
===================== Size = 4 ==================

===================== pushRequest in lsq_impl.hh ==================
===================== Store at Address = 0x7fffffffecd4 ==================
===================== Store Data = f0 ==================
===================== Size = 4 ==================

===================== pushRequest in lsq_impl.hh ==================
===================== Load from Address = 0x7fffffffecd0 ==================
===================== Size = 4 ==================

===================== pushRequest in lsq_impl.hh ==================
===================== Load from Address = 0x7fffffffeccc ==================
===================== Size = 4 ==================

===================== pushRequest in lsq_impl.hh ==================
===================== Store at Address = 0x7fffffffecd0 ==================
===================== Store Data = 27 ==================
===================== Size = 4 ==================

===================== pushRequest in lsq_impl.hh ==================
===================== Load from Address = 0x7fffffffecd0 ==================
===================== Size = 4 ==================

===================== pushRequest in lsq_impl.hh ==================
===================== Store at Address = 0x7fffffffecd4 ==================
===================== Store Data = f0 ==================
===================== Size = 4 ==================

===================== pushRequest in lsq_impl.hh ==================
===================== Load from Address = 0x7fffffffecd0 ==================
===================== Size = 4 ==================

===================== pushRequest in lsq_impl.hh ==================
===================== Load from Address = 0x7fffffffeccc ==================
===================== Size = 4 ==================

===================== pushRequest in lsq_impl.hh ==================
===================== Store at Address = 0x7fffffffecd0 ==================
===================== Store Data = 28 ==================
===================== Size = 4 ==================

===================== pushRequest in lsq_impl.hh ==================
===================== Load from Address = 0x7fffffffecd0 ==================
===================== Size = 4 ==================

===================== pushRequest in lsq_impl.hh ==================
===================== Store at Address = 0x7fffffffecd4 ==================
===================== Store Data = f0 ==================
===================== Size = 4 ==================

===================== pushRequest in lsq_impl.hh ==================
===================== Load from Address = 0x7fffffffecd0 ==================
===================== Size = 4 ==================

===================== pushRequest in lsq_impl.hh ==================
===================== Load from Address = 0x7fffffffeccc ==================
===================== Size = 4 ==================

===================== pushRequest in lsq_impl.hh ==================
===================== Store at Address = 0x7fffffffecd0 ==================
===================== Store Data = 29 ==================
===================== Size = 4 ==================

===================== pushRequest in lsq_impl.hh ==================
===================== Load from Address = 0x7fffffffecd0 ==================
===================== Size = 4 ==================

===================== pushRequest in lsq_impl.hh ==================
===================== Store at Address = 0x7fffffffecd4 ==================
===================== Store Data = f0 ==================
===================== Size = 4 ==================

===================== pushRequest in lsq_impl.hh ==================
===================== Load from Address = 0x7fffffffecd0 ==================
===================== Size = 4 ==================

===================== pushRequest in lsq_impl.hh ==================
===================== Load from Address = 0x7fffffffeccc ==================
===================== Size = 4 ==================

===================== pushRequest in lsq_impl.hh ==================
===================== Store at Address = 0x7fffffffecd0 ==================
===================== Store Data = 2a ==================
===================== Size = 4 ==================

===================== pushRequest in lsq_impl.hh ==================
===================== Load from Address = 0x7fffffffecd0 ==================
===================== Size = 4 ==================

===================== pushRequest in lsq_impl.hh ==================
===================== Store at Address = 0x7fffffffecd4 ==================
===================== Store Data = f0 ==================
===================== Size = 4 ==================

===================== pushRequest in lsq_impl.hh ==================
===================== Load from Address = 0x7fffffffecd0 ==================
===================== Size = 4 ==================

===================== pushRequest in lsq_impl.hh ==================
===================== Load from Address = 0x7fffffffeccc ==================
===================== Size = 4 ==================

===================== pushRequest in lsq_impl.hh ==================
===================== Store at Address = 0x7fffffffecd0 ==================
===================== Store Data = 2b ==================
===================== Size = 4 ==================

===================== pushRequest in lsq_impl.hh ==================
===================== Load from Address = 0x7fffffffecd0 ==================
===================== Size = 4 ==================

===================== pushRequest in lsq_impl.hh ==================
===================== Store at Address = 0x7fffffffecd4 ==================
===================== Store Data = f0 ==================
===================== Size = 4 ==================

===================== pushRequest in lsq_impl.hh ==================
===================== Load from Address = 0x7fffffffecd0 ==================
===================== Size = 4 ==================

===================== pushRequest in lsq_impl.hh ==================
===================== Load from Address = 0x7fffffffeccc ==================
===================== Size = 4 ==================

===================== pushRequest in lsq_impl.hh ==================
===================== Store at Address = 0x7fffffffecd0 ==================
===================== Store Data = 2c ==================
===================== Size = 4 ==================

===================== pushRequest in lsq_impl.hh ==================
===================== Load from Address = 0x7fffffffecd0 ==================
===================== Size = 4 ==================

===================== pushRequest in lsq_impl.hh ==================
===================== Store at Address = 0x7fffffffecd4 ==================
===================== Store Data = f0 ==================
===================== Size = 4 ==================

===================== pushRequest in lsq_impl.hh ==================
===================== Load from Address = 0x7fffffffecd0 ==================
===================== Size = 4 ==================

===================== pushRequest in lsq_impl.hh ==================
===================== Load from Address = 0x7fffffffeccc ==================
===================== Size = 4 ==================

===================== pushRequest in lsq_impl.hh ==================
===================== Store at Address = 0x7fffffffecd0 ==================
===================== Store Data = 2d ==================
===================== Size = 4 ==================

===================== pushRequest in lsq_impl.hh ==================
===================== Load from Address = 0x7fffffffecd0 ==================
===================== Size = 4 ==================

===================== pushRequest in lsq_impl.hh ==================
===================== Store at Address = 0x7fffffffecd4 ==================
===================== Store Data = f0 ==================
===================== Size = 4 ==================

===================== pushRequest in lsq_impl.hh ==================
===================== Load from Address = 0x7fffffffecd0 ==================
===================== Size = 4 ==================

===================== pushRequest in lsq_impl.hh ==================
===================== Load from Address = 0x7fffffffeccc ==================
===================== Size = 4 ==================

===================== pushRequest in lsq_impl.hh ==================
===================== Store at Address = 0x7fffffffecd0 ==================
===================== Store Data = 2e ==================
===================== Size = 4 ==================

===================== pushRequest in lsq_impl.hh ==================
===================== Load from Address = 0x7fffffffecd0 ==================
===================== Size = 4 ==================

===================== pushRequest in lsq_impl.hh ==================
===================== Store at Address = 0x7fffffffecd4 ==================
===================== Store Data = f0 ==================
===================== Size = 4 ==================

===================== pushRequest in lsq_impl.hh ==================
===================== Load from Address = 0x7fffffffecd0 ==================
===================== Size = 4 ==================

===================== pushRequest in lsq_impl.hh ==================
===================== Load from Address = 0x7fffffffeccc ==================
===================== Size = 4 ==================

===================== pushRequest in lsq_impl.hh ==================
===================== Store at Address = 0x7fffffffecd0 ==================
===================== Store Data = 2f ==================
===================== Size = 4 ==================

===================== pushRequest in lsq_impl.hh ==================
===================== Load from Address = 0x7fffffffecd0 ==================
===================== Size = 4 ==================

===================== pushRequest in lsq_impl.hh ==================
===================== Store at Address = 0x7fffffffecd4 ==================
===================== Store Data = f0 ==================
===================== Size = 4 ==================

===================== pushRequest in lsq_impl.hh ==================
===================== Load from Address = 0x7fffffffecd0 ==================
===================== Size = 4 ==================

===================== pushRequest in lsq_impl.hh ==================
===================== Load from Address = 0x7fffffffeccc ==================
===================== Size = 4 ==================

===================== pushRequest in lsq_impl.hh ==================
===================== Store at Address = 0x7fffffffecd0 ==================
===================== Store Data = 30 ==================
===================== Size = 4 ==================

===================== pushRequest in lsq_impl.hh ==================
===================== Load from Address = 0x7fffffffecd0 ==================
===================== Size = 4 ==================

===================== pushRequest in lsq_impl.hh ==================
===================== Store at Address = 0x7fffffffecd4 ==================
===================== Store Data = f0 ==================
===================== Size = 4 ==================

===================== pushRequest in lsq_impl.hh ==================
===================== Load from Address = 0x7fffffffecd0 ==================
===================== Size = 4 ==================

===================== pushRequest in lsq_impl.hh ==================
===================== Load from Address = 0x7fffffffeccc ==================
===================== Size = 4 ==================

===================== pushRequest in lsq_impl.hh ==================
===================== Store at Address = 0x7fffffffecd0 ==================
===================== Store Data = 31 ==================
===================== Size = 4 ==================

===================== pushRequest in lsq_impl.hh ==================
===================== Load from Address = 0x7fffffffecd0 ==================
===================== Size = 4 ==================

===================== pushRequest in lsq_impl.hh ==================
===================== Store at Address = 0x7fffffffecd4 ==================
===================== Store Data = f0 ==================
===================== Size = 4 ==================

===================== pushRequest in lsq_impl.hh ==================
===================== Load from Address = 0x7fffffffecd0 ==================
===================== Size = 4 ==================

===================== pushRequest in lsq_impl.hh ==================
===================== Load from Address = 0x7fffffffeccc ==================
===================== Size = 4 ==================

===================== pushRequest in lsq_impl.hh ==================
===================== Store at Address = 0x7fffffffecd0 ==================
===================== Store Data = 32 ==================
===================== Size = 4 ==================

===================== pushRequest in lsq_impl.hh ==================
===================== Load from Address = 0x7fffffffecd0 ==================
===================== Size = 4 ==================

===================== pushRequest in lsq_impl.hh ==================
===================== Store at Address = 0x7fffffffecd4 ==================
===================== Store Data = f0 ==================
===================== Size = 4 ==================

===================== pushRequest in lsq_impl.hh ==================
===================== Load from Address = 0x7fffffffecd0 ==================
===================== Size = 4 ==================

===================== pushRequest in lsq_impl.hh ==================
===================== Load from Address = 0x7fffffffeccc ==================
===================== Size = 4 ==================

===================== pushRequest in lsq_impl.hh ==================
===================== Store at Address = 0x7fffffffecd0 ==================
===================== Store Data = 33 ==================
===================== Size = 4 ==================

===================== pushRequest in lsq_impl.hh ==================
===================== Load from Address = 0x7fffffffecd0 ==================
===================== Size = 4 ==================

===================== pushRequest in lsq_impl.hh ==================
===================== Store at Address = 0x7fffffffecd4 ==================
===================== Store Data = f0 ==================
===================== Size = 4 ==================

===================== pushRequest in lsq_impl.hh ==================
===================== Load from Address = 0x7fffffffecd0 ==================
===================== Size = 4 ==================

===================== pushRequest in lsq_impl.hh ==================
===================== Load from Address = 0x7fffffffeccc ==================
===================== Size = 4 ==================

===================== pushRequest in lsq_impl.hh ==================
===================== Store at Address = 0x7fffffffecd0 ==================
===================== Store Data = 34 ==================
===================== Size = 4 ==================

===================== pushRequest in lsq_impl.hh ==================
===================== Load from Address = 0x7fffffffecd0 ==================
===================== Size = 4 ==================

===================== pushRequest in lsq_impl.hh ==================
===================== Store at Address = 0x7fffffffecd4 ==================
===================== Store Data = f0 ==================
===================== Size = 4 ==================

===================== pushRequest in lsq_impl.hh ==================
===================== Load from Address = 0x7fffffffecd0 ==================
===================== Size = 4 ==================

===================== pushRequest in lsq_impl.hh ==================
===================== Load from Address = 0x7fffffffeccc ==================
===================== Size = 4 ==================

===================== pushRequest in lsq_impl.hh ==================
===================== Store at Address = 0x7fffffffecd0 ==================
===================== Store Data = 35 ==================
===================== Size = 4 ==================

===================== pushRequest in lsq_impl.hh ==================
===================== Load from Address = 0x7fffffffecd0 ==================
===================== Size = 4 ==================

===================== pushRequest in lsq_impl.hh ==================
===================== Store at Address = 0x7fffffffecd4 ==================
===================== Store Data = f0 ==================
===================== Size = 4 ==================

===================== pushRequest in lsq_impl.hh ==================
===================== Load from Address = 0x7fffffffecd0 ==================
===================== Size = 4 ==================

===================== pushRequest in lsq_impl.hh ==================
===================== Load from Address = 0x7fffffffeccc ==================
===================== Size = 4 ==================

===================== pushRequest in lsq_impl.hh ==================
===================== Store at Address = 0x7fffffffecd0 ==================
===================== Store Data = 36 ==================
===================== Size = 4 ==================

===================== pushRequest in lsq_impl.hh ==================
===================== Load from Address = 0x7fffffffecd0 ==================
===================== Size = 4 ==================

===================== pushRequest in lsq_impl.hh ==================
===================== Store at Address = 0x7fffffffecd4 ==================
===================== Store Data = f0 ==================
===================== Size = 4 ==================

===================== pushRequest in lsq_impl.hh ==================
===================== Load from Address = 0x7fffffffecd0 ==================
===================== Size = 4 ==================

===================== pushRequest in lsq_impl.hh ==================
===================== Load from Address = 0x7fffffffeccc ==================
===================== Size = 4 ==================

===================== pushRequest in lsq_impl.hh ==================
===================== Store at Address = 0x7fffffffecd0 ==================
===================== Store Data = 37 ==================
===================== Size = 4 ==================

===================== pushRequest in lsq_impl.hh ==================
===================== Load from Address = 0x7fffffffecd0 ==================
===================== Size = 4 ==================

===================== pushRequest in lsq_impl.hh ==================
===================== Store at Address = 0x7fffffffecd4 ==================
===================== Store Data = f0 ==================
===================== Size = 4 ==================

===================== pushRequest in lsq_impl.hh ==================
===================== Load from Address = 0x7fffffffecd0 ==================
===================== Size = 4 ==================

===================== pushRequest in lsq_impl.hh ==================
===================== Load from Address = 0x7fffffffeccc ==================
===================== Size = 4 ==================

===================== pushRequest in lsq_impl.hh ==================
===================== Store at Address = 0x7fffffffecd0 ==================
===================== Store Data = 38 ==================
===================== Size = 4 ==================

===================== pushRequest in lsq_impl.hh ==================
===================== Load from Address = 0x7fffffffecd0 ==================
===================== Size = 4 ==================

===================== pushRequest in lsq_impl.hh ==================
===================== Store at Address = 0x7fffffffecd4 ==================
===================== Store Data = f0 ==================
===================== Size = 4 ==================

===================== pushRequest in lsq_impl.hh ==================
===================== Load from Address = 0x7fffffffecd0 ==================
===================== Size = 4 ==================

===================== pushRequest in lsq_impl.hh ==================
===================== Load from Address = 0x7fffffffeccc ==================
===================== Size = 4 ==================

===================== pushRequest in lsq_impl.hh ==================
===================== Store at Address = 0x7fffffffecd0 ==================
===================== Store Data = 39 ==================
===================== Size = 4 ==================

===================== pushRequest in lsq_impl.hh ==================
===================== Load from Address = 0x7fffffffecd0 ==================
===================== Size = 4 ==================

===================== pushRequest in lsq_impl.hh ==================
===================== Store at Address = 0x7fffffffecd4 ==================
===================== Store Data = f0 ==================
===================== Size = 4 ==================

===================== pushRequest in lsq_impl.hh ==================
===================== Load from Address = 0x7fffffffecd0 ==================
===================== Size = 4 ==================

===================== pushRequest in lsq_impl.hh ==================
===================== Load from Address = 0x7fffffffeccc ==================
===================== Size = 4 ==================

===================== pushRequest in lsq_impl.hh ==================
===================== Store at Address = 0x7fffffffecd0 ==================
===================== Store Data = 3a ==================
===================== Size = 4 ==================

===================== pushRequest in lsq_impl.hh ==================
===================== Load from Address = 0x7fffffffecd0 ==================
===================== Size = 4 ==================

===================== pushRequest in lsq_impl.hh ==================
===================== Store at Address = 0x7fffffffecd4 ==================
===================== Store Data = f0 ==================
===================== Size = 4 ==================

===================== pushRequest in lsq_impl.hh ==================
===================== Load from Address = 0x7fffffffecd0 ==================
===================== Size = 4 ==================

===================== pushRequest in lsq_impl.hh ==================
===================== Load from Address = 0x7fffffffeccc ==================
===================== Size = 4 ==================

===================== pushRequest in lsq_impl.hh ==================
===================== Store at Address = 0x7fffffffecd0 ==================
===================== Store Data = 3b ==================
===================== Size = 4 ==================

===================== pushRequest in lsq_impl.hh ==================
===================== Load from Address = 0x7fffffffecd0 ==================
===================== Size = 4 ==================

===================== pushRequest in lsq_impl.hh ==================
===================== Store at Address = 0x7fffffffecd4 ==================
===================== Store Data = f0 ==================
===================== Size = 4 ==================

===================== pushRequest in lsq_impl.hh ==================
===================== Load from Address = 0x7fffffffecd0 ==================
===================== Size = 4 ==================

===================== pushRequest in lsq_impl.hh ==================
===================== Load from Address = 0x7fffffffeccc ==================
===================== Size = 4 ==================

===================== pushRequest in lsq_impl.hh ==================
===================== Store at Address = 0x7fffffffecd0 ==================
===================== Store Data = 3c ==================
===================== Size = 4 ==================

===================== pushRequest in lsq_impl.hh ==================
===================== Load from Address = 0x7fffffffecd0 ==================
===================== Size = 4 ==================

===================== pushRequest in lsq_impl.hh ==================
===================== Store at Address = 0x7fffffffecd4 ==================
===================== Store Data = f0 ==================
===================== Size = 4 ==================

===================== pushRequest in lsq_impl.hh ==================
===================== Load from Address = 0x7fffffffecd0 ==================
===================== Size = 4 ==================

===================== pushRequest in lsq_impl.hh ==================
===================== Load from Address = 0x7fffffffeccc ==================
===================== Size = 4 ==================

===================== pushRequest in lsq_impl.hh ==================
===================== Store at Address = 0x7fffffffecd0 ==================
===================== Store Data = 3d ==================
===================== Size = 4 ==================

===================== pushRequest in lsq_impl.hh ==================
===================== Load from Address = 0x7fffffffecd0 ==================
===================== Size = 4 ==================

===================== pushRequest in lsq_impl.hh ==================
===================== Store at Address = 0x7fffffffecd4 ==================
===================== Store Data = f0 ==================
===================== Size = 4 ==================

===================== pushRequest in lsq_impl.hh ==================
===================== Load from Address = 0x7fffffffecd0 ==================
===================== Size = 4 ==================

===================== pushRequest in lsq_impl.hh ==================
===================== Load from Address = 0x7fffffffeccc ==================
===================== Size = 4 ==================

===================== pushRequest in lsq_impl.hh ==================
===================== Store at Address = 0x7fffffffecd0 ==================
===================== Store Data = 3e ==================
===================== Size = 4 ==================

===================== pushRequest in lsq_impl.hh ==================
===================== Load from Address = 0x7fffffffecd0 ==================
===================== Size = 4 ==================

===================== pushRequest in lsq_impl.hh ==================
===================== Store at Address = 0x7fffffffecd4 ==================
===================== Store Data = f0 ==================
===================== Size = 4 ==================

===================== pushRequest in lsq_impl.hh ==================
===================== Load from Address = 0x7fffffffecd0 ==================
===================== Size = 4 ==================

===================== pushRequest in lsq_impl.hh ==================
===================== Load from Address = 0x7fffffffeccc ==================
===================== Size = 4 ==================

===================== pushRequest in lsq_impl.hh ==================
===================== Store at Address = 0x7fffffffecd0 ==================
===================== Store Data = 3f ==================
===================== Size = 4 ==================

===================== pushRequest in lsq_impl.hh ==================
===================== Load from Address = 0x7fffffffecd0 ==================
===================== Size = 4 ==================

===================== pushRequest in lsq_impl.hh ==================
===================== Store at Address = 0x7fffffffecd4 ==================
===================== Store Data = f0 ==================
===================== Size = 4 ==================

===================== pushRequest in lsq_impl.hh ==================
===================== Load from Address = 0x7fffffffecd0 ==================
===================== Size = 4 ==================

===================== pushRequest in lsq_impl.hh ==================
===================== Load from Address = 0x7fffffffeccc ==================
===================== Size = 4 ==================

===================== pushRequest in lsq_impl.hh ==================
===================== Store at Address = 0x7fffffffecd0 ==================
===================== Store Data = 40 ==================
===================== Size = 4 ==================

===================== pushRequest in lsq_impl.hh ==================
===================== Load from Address = 0x7fffffffecd0 ==================
===================== Size = 4 ==================

===================== pushRequest in lsq_impl.hh ==================
===================== Store at Address = 0x7fffffffecd4 ==================
===================== Store Data = f0 ==================
===================== Size = 4 ==================

===================== pushRequest in lsq_impl.hh ==================
===================== Load from Address = 0x7fffffffecd0 ==================
===================== Size = 4 ==================

===================== pushRequest in lsq_impl.hh ==================
===================== Load from Address = 0x7fffffffeccc ==================
===================== Size = 4 ==================

===================== pushRequest in lsq_impl.hh ==================
===================== Store at Address = 0x7fffffffecd0 ==================
===================== Store Data = 41 ==================
===================== Size = 4 ==================

===================== pushRequest in lsq_impl.hh ==================
===================== Load from Address = 0x7fffffffecd0 ==================
===================== Size = 4 ==================

===================== pushRequest in lsq_impl.hh ==================
===================== Store at Address = 0x7fffffffecd4 ==================
===================== Store Data = f0 ==================
===================== Size = 4 ==================

===================== pushRequest in lsq_impl.hh ==================
===================== Load from Address = 0x7fffffffecd0 ==================
===================== Size = 4 ==================

===================== pushRequest in lsq_impl.hh ==================
===================== Load from Address = 0x7fffffffeccc ==================
===================== Size = 4 ==================

===================== pushRequest in lsq_impl.hh ==================
===================== Store at Address = 0x7fffffffecd0 ==================
===================== Store Data = 42 ==================
===================== Size = 4 ==================

===================== pushRequest in lsq_impl.hh ==================
===================== Load from Address = 0x7fffffffecd0 ==================
===================== Size = 4 ==================

===================== pushRequest in lsq_impl.hh ==================
===================== Store at Address = 0x7fffffffecd4 ==================
===================== Store Data = f0 ==================
===================== Size = 4 ==================

===================== pushRequest in lsq_impl.hh ==================
===================== Load from Address = 0x7fffffffecd0 ==================
===================== Size = 4 ==================

===================== pushRequest in lsq_impl.hh ==================
===================== Load from Address = 0x7fffffffeccc ==================
===================== Size = 4 ==================

===================== pushRequest in lsq_impl.hh ==================
===================== Store at Address = 0x7fffffffecd0 ==================
===================== Store Data = 43 ==================
===================== Size = 4 ==================

===================== pushRequest in lsq_impl.hh ==================
===================== Load from Address = 0x7fffffffecd0 ==================
===================== Size = 4 ==================

===================== pushRequest in lsq_impl.hh ==================
===================== Store at Address = 0x7fffffffecd4 ==================
===================== Store Data = f0 ==================
===================== Size = 4 ==================

===================== pushRequest in lsq_impl.hh ==================
===================== Load from Address = 0x7fffffffecd0 ==================
===================== Size = 4 ==================

===================== pushRequest in lsq_impl.hh ==================
===================== Load from Address = 0x7fffffffeccc ==================
===================== Size = 4 ==================

===================== pushRequest in lsq_impl.hh ==================
===================== Store at Address = 0x7fffffffecd0 ==================
===================== Store Data = 44 ==================
===================== Size = 4 ==================

===================== pushRequest in lsq_impl.hh ==================
===================== Load from Address = 0x7fffffffecd0 ==================
===================== Size = 4 ==================

===================== pushRequest in lsq_impl.hh ==================
===================== Store at Address = 0x7fffffffecd4 ==================
===================== Store Data = f0 ==================
===================== Size = 4 ==================

===================== pushRequest in lsq_impl.hh ==================
===================== Load from Address = 0x7fffffffecd0 ==================
[...]
===================== Store Data = f0 ==================
===================== Size = 4 ==================

===================== pushRequest in lsq_impl.hh ==================
===================== Load from Address = 0x7fffffffecd0 ==================
===================== Size = 4 ==================

===================== pushRequest in lsq_impl.hh ==================
===================== Load from Address = 0x7fffffffeccc ==================
===================== Size = 4 ==================

===================== pushRequest in lsq_impl.hh ==================
===================== Store at Address = 0x7fffffffecd0 ==================
===================== Store Data = 55 ==================
===================== Size = 4 ==================

===================== pushRequest in lsq_impl.hh ==================
===================== Load from Address = 0x7fffffffecd0 ==================
===================== Size = 4 ==================

===================== pushRequest in lsq_impl.hh ==================
===================== Store at Address = 0x7fffffffecd4 ==================
===================== Store Data = f0 ==================
===================== Size = 4 ==================

===================== pushRequest in lsq_impl.hh ==================
===================== Load from Address = 0x7fffffffecd0 ==================
===================== Size = 4 ==================

===================== pushRequest in lsq_impl.hh ==================
===================== Load from Address = 0x7fffffffeccc ==================
===================== Size = 4 ==================

===================== pushRequest in lsq_impl.hh ==================
===================== Store at Address = 0x7fffffffecd0 ==================
===================== Store Data = 56 ==================
===================== Size = 4 ==================

===================== pushRequest in lsq_impl.hh ==================
===================== Load from Address = 0x7fffffffecd0 ==================
===================== Size = 4 ==================

===================== pushRequest in lsq_impl.hh ==================
===================== Store at Address = 0x7fffffffecd4 ==================
===================== Store Data = f0 ==================
===================== Size = 4 ==================

===================== pushRequest in lsq_impl.hh ==================
===================== Load from Address = 0x7fffffffecd0 ==================
===================== Size = 4 ==================

===================== pushRequest in lsq_impl.hh ==================
===================== Load from Address = 0x7fffffffeccc ==================
===================== Size = 4 ==================

===================== pushRequest in lsq_impl.hh ==================
===================== Store at Address = 0x7fffffffecd0 ==================
===================== Store Data = 57 ==================
===================== Size = 4 ==================

===================== pushRequest in lsq_impl.hh ==================
===================== Load from Address = 0x7fffffffecd0 ==================
===================== Size = 4 ==================

===================== pushRequest in lsq_impl.hh ==================
===================== Store at Address = 0x7fffffffecd4 ==================
===================== Store Data = f0 ==================
===================== Size = 4 ==================

===================== pushRequest in lsq_impl.hh ==================
===================== Load from Address = 0x7fffffffecd0 ==================
===================== Size = 4 ==================

===================== pushRequest in lsq_impl.hh ==================
===================== Load from Address = 0x7fffffffeccc ==================
===================== Size = 4 ==================

===================== pushRequest in lsq_impl.hh ==================
===================== Store at Address = 0x7fffffffecd0 ==================
===================== Store Data = 58 ==================
===================== Size = 4 ==================

===================== pushRequest in lsq_impl.hh ==================
===================== Load from Address = 0x7fffffffecd0 ==================
===================== Size = 4 ==================

===================== pushRequest in lsq_impl.hh ==================
===================== Store at Address = 0x7fffffffecd4 ==================
===================== Store Data = f0 ==================
===================== Size = 4 ==================

===================== pushRequest in lsq_impl.hh ==================
===================== Load from Address = 0x7fffffffecd0 ==================
===================== Size = 4 ==================

===================== pushRequest in lsq_impl.hh ==================
===================== Load from Address = 0x7fffffffeccc ==================
===================== Size = 4 ==================

===================== pushRequest in lsq_impl.hh ==================
===================== Store at Address = 0x7fffffffecd0 ==================
===================== Store Data = 59 ==================
===================== Size = 4 ==================

===================== pushRequest in lsq_impl.hh ==================
===================== Load from Address = 0x7fffffffecd0 ==================
===================== Size = 4 ==================

===================== pushRequest in lsq_impl.hh ==================
===================== Store at Address = 0x7fffffffecd4 ==================
===================== Store Data = f0 ==================
===================== Size = 4 ==================

===================== pushRequest in lsq_impl.hh ==================
===================== Load from Address = 0x7fffffffecd0 ==================
===================== Size = 4 ==================

===================== pushRequest in lsq_impl.hh ==================
===================== Load from Address = 0x7fffffffeccc ==================
===================== Size = 4 ==================

===================== pushRequest in lsq_impl.hh ==================
===================== Store at Address = 0x7fffffffecd0 ==================
===================== Store Data = 5a ==================
===================== Size = 4 ==================

===================== pushRequest in lsq_impl.hh ==================
===================== Load from Address = 0x7fffffffecd0 ==================
===================== Size = 4 ==================

===================== pushRequest in lsq_impl.hh ==================
===================== Store at Address = 0x7fffffffecd4 ==================
===================== Store Data = f0 ==================
===================== Size = 4 ==================

===================== pushRequest in lsq_impl.hh ==================
===================== Load from Address = 0x7fffffffecd0 ==================
===================== Size = 4 ==================

===================== pushRequest in lsq_impl.hh ==================
===================== Load from Address = 0x7fffffffeccc ==================
===================== Size = 4 ==================

===================== pushRequest in lsq_impl.hh ==================
===================== Store at Address = 0x7fffffffecd0 ==================
===================== Store Data = 5b ==================
===================== Size = 4 ==================

===================== pushRequest in lsq_impl.hh ==================
===================== Load from Address = 0x7fffffffecd0 ==================
===================== Size = 4 ==================

===================== pushRequest in lsq_impl.hh ==================
===================== Store at Address = 0x7fffffffecd4 ==================
===================== Store Data = f0 ==================
===================== Size = 4 ==================

===================== pushRequest in lsq_impl.hh ==================
===================== Load from Address = 0x7fffffffecd0 ==================
===================== Size = 4 ==================

===================== pushRequest in lsq_impl.hh ==================
===================== Load from Address = 0x7fffffffeccc ==================
===================== Size = 4 ==================

===================== pushRequest in lsq_impl.hh ==================
===================== Store at Address = 0x7fffffffecd0 ==================
===================== Store Data = 5c ==================
===================== Size = 4 ==================

===================== pushRequest in lsq_impl.hh ==================
===================== Load from Address = 0x7fffffffecd0 ==================
===================== Size = 4 ==================

===================== pushRequest in lsq_impl.hh ==================
===================== Store at Address = 0x7fffffffecd4 ==================
===================== Store Data = f0 ==================
===================== Size = 4 ==================

===================== pushRequest in lsq_impl.hh ==================
===================== Load from Address = 0x7fffffffecd0 ==================
===================== Size = 4 ==================

===================== pushRequest in lsq_impl.hh ==================
===================== Load from Address = 0x7fffffffeccc ==================
===================== Size = 4 ==================

===================== pushRequest in lsq_impl.hh ==================
===================== Store at Address = 0x7fffffffecd0 ==================
===================== Store Data = 5d ==================
===================== Size = 4 ==================

===================== pushRequest in lsq_impl.hh ==================
===================== Load from Address = 0x7fffffffecd0 ==================
===================== Size = 4 ==================

===================== pushRequest in lsq_impl.hh ==================
===================== Store at Address = 0x7fffffffecd4 ==================
===================== Store Data = f0 ==================
===================== Size = 4 ==================

===================== pushRequest in lsq_impl.hh ==================
===================== Load from Address = 0x7fffffffecd0 ==================
===================== Size = 4 ==================

===================== pushRequest in lsq_impl.hh ==================
===================== Load from Address = 0x7fffffffeccc ==================
===================== Size = 4 ==================

===================== pushRequest in lsq_impl.hh ==================
===================== Store at Address = 0x7fffffffecd0 ==================
===================== Store Data = 5e ==================
===================== Size = 4 ==================

===================== pushRequest in lsq_impl.hh ==================
===================== Load from Address = 0x7fffffffecd0 ==================
===================== Size = 4 ==================

===================== pushRequest in lsq_impl.hh ==================
===================== Store at Address = 0x7fffffffecd4 ==================
===================== Store Data = f0 ==================
===================== Size = 4 ==================

===================== pushRequest in lsq_impl.hh ==================
===================== Load from Address = 0x7fffffffecd0 ==================
===================== Size = 4 ==================

===================== pushRequest in lsq_impl.hh ==================
===================== Load from Address = 0x7fffffffeccc ==================
===================== Size = 4 ==================

===================== pushRequest in lsq_impl.hh ==================
===================== Store at Address = 0x7fffffffecd0 ==================
===================== Store Data = 5f ==================
===================== Size = 4 ==================

===================== pushRequest in lsq_impl.hh ==================
===================== Load from Address = 0x7fffffffecd0 ==================
===================== Size = 4 ==================

===================== pushRequest in lsq_impl.hh ==================
===================== Store at Address = 0x7fffffffecd4 ==================
===================== Store Data = f0 ==================
===================== Size = 4 ==================

===================== pushRequest in lsq_impl.hh ==================
===================== Load from Address = 0x7fffffffecd0 ==================
===================== Size = 4 ==================

===================== pushRequest in lsq_impl.hh ==================
===================== Load from Address = 0x7fffffffeccc ==================
===================== Size = 4 ==================

===================== pushRequest in lsq_impl.hh ==================
===================== Store at Address = 0x7fffffffecd0 ==================
===================== Store Data = 60 ==================
===================== Size = 4 ==================

===================== pushRequest in lsq_impl.hh ==================
===================== Load from Address = 0x7fffffffecd0 ==================
===================== Size = 4 ==================

===================== pushRequest in lsq_impl.hh ==================
===================== Store at Address = 0x7fffffffecd4 ==================
===================== Store Data = f0 ==================
===================== Size = 4 ==================

===================== pushRequest in lsq_impl.hh ==================
===================== Load from Address = 0x7fffffffecd0 ==================
===================== Size = 4 ==================

===================== pushRequest in lsq_impl.hh ==================
===================== Load from Address = 0x7fffffffeccc ==================
===================== Size = 4 ==================

===================== pushRequest in lsq_impl.hh ==================
===================== Store at Address = 0x7fffffffecd0 ==================
===================== Store Data = 61 ==================
===================== Size = 4 ==================

===================== pushRequest in lsq_impl.hh ==================
===================== Load from Address = 0x7fffffffecd0 ==================
===================== Size = 4 ==================

===================== pushRequest in lsq_impl.hh ==================
===================== Store at Address = 0x7fffffffecd4 ==================
===================== Store Data = f0 ==================
===================== Size = 4 ==================

===================== pushRequest in lsq_impl.hh ==================
===================== Load from Address = 0x7fffffffecd0 ==================
===================== Size = 4 ==================

===================== pushRequest in lsq_impl.hh ==================
===================== Load from Address = 0x7fffffffeccc ==================
===================== Size = 4 ==================

===================== pushRequest in lsq_impl.hh ==================
===================== Store at Address = 0x7fffffffecd0 ==================
===================== Store Data = 62 ==================
===================== Size = 4 ==================

===================== pushRequest in lsq_impl.hh ==================
===================== Load from Address = 0x7fffffffecd0 ==================
===================== Size = 4 ==================

===================== pushRequest in lsq_impl.hh ==================
===================== Store at Address = 0x7fffffffecd4 ==================
===================== Store Data = f0 ==================
===================== Size = 4 ==================

===================== pushRequest in lsq_impl.hh ==================
===================== Load from Address = 0x7fffffffecd0 ==================
===================== Size = 4 ==================

===================== pushRequest in lsq_impl.hh ==================
===================== Load from Address = 0x7fffffffeccc ==================
===================== Size = 4 ==================

===================== pushRequest in lsq_impl.hh ==================
===================== Store at Address = 0x7fffffffecd0 ==================
===================== Store Data = 63 ==================
===================== Size = 4 ==================

===================== pushRequest in lsq_impl.hh ==================
===================== Load from Address = 0x7fffffffecd0 ==================
===================== Size = 4 ==================

===================== pushRequest in lsq_impl.hh ==================
===================== Store at Address = 0x7fffffffecd4 ==================
===================== Store Data = f0 ==================
===================== Size = 4 ==================

===================== pushRequest in lsq_impl.hh ==================
===================== Load from Address = 0x7fffffffecd0 ==================
===================== Size = 4 ==================

===================== pushRequest in lsq_impl.hh ==================
===================== Load from Address = 0x7fffffffeccc ==================
===================== Size = 4 ==================

===================== pushRequest in lsq_impl.hh ==================
===================== Store at Address = 0x7fffffffecd0 ==================
===================== Store Data = 64 ==================
===================== Size = 4 ==================

===================== pushRequest in lsq_impl.hh ==================
===================== Load from Address = 0x7fffffffecd0 ==================
===================== Size = 4 ==================

===================== pushRequest in lsq_impl.hh ==================
===================== Store at Address = 0x7fffffffecd4 ==================
===================== Store Data = f0 ==================
===================== Size = 4 ==================

===================== pushRequest in lsq_impl.hh ==================
===================== Load from Address = 0x7fffffffecd0 ==================
===================== Size = 4 ==================

===================== pushRequest in lsq_impl.hh ==================
===================== Load from Address = 0x7fffffffeccc ==================
===================== Size = 4 ==================

===================== pushRequest in lsq_impl.hh ==================
===================== Store at Address = 0x7fffffffecd0 ==================
===
======== Address of a ======== 0x7fffffffeccc 
================== Store Data = 65 ==================
===================== Size = 4 ==================

===================== pushRequest in lsq_impl.hh ==================
===================== Load from Address = 0x7fffffffecd0 ==================
===================== Size = 4 ==================

===================== pushRequest in lsq_impl.hh ==================
===================== Store at Address = 0x7fffffffecd4 ==================
===================== Store Data = f0 ==================
===================== Size = 4 ==================

===================== pushRequest in lsq_impl.hh ==================
===================== Load from Address = 0x7fffffffecd0 ==================
===================== Size = 4 ==================

===================== pushRequest in lsq_impl.hh ==================
===================== Load from Address = 0x7fffffffeccc ==================
===================== Size = 4 ==================

===================== pushRequest in lsq_impl.hh ==================
===================== Store at Address = 0x7fffffffecd0 ==================
===================== Store Data = 66 ==================
===================== Size = 4 ==================
==== squash instn in lsq_unit_impl.hh = 32631 ---------

===================== pushRequest in lsq_impl.hh ==================
===================== Store at Address = 0x7fffffffecb8 ==================
===================== Store Data = a7 ==================
===================== Size = 8 ==================
==== squash instn in lsq_unit_impl.hh = 32785 ---------

===================== pushRequest in lsq_impl.hh ==================
===================== Load from Address = 0x7fffffffecb8 ==================
===================== Size = 8 ==================
HERE 2 : enable_memreq_tracing = 0
Exiting @ tick 32406500 because exiting with last active thread context
