gem5 Simulator System.  http://gem5.org
gem5 is copyrighted software; use the --copyright option for details.

gem5 compiled Apr  7 2020 12:35:13
gem5 started Apr  8 2020 19:00:47
gem5 executing on tarund-desk, pid 17192
command line: build/X86/gem5.opt configs/example/se.py --cmd=./tests/my_progs/spectre_v4 --cpu-type=DerivO3CPU --caches --mem-size=4GB --l1d_size=32kB --l1i_size=1kB --l1d_assoc=1 --l1i_assoc=1 --cacheline_size=64

Global frequency set at 1000000000000 ticks per second
**** REAL SIMULATION ****
array[] = 0 
HERE 1 : enable_memreq_tracing = 1
-- PC: (0x400bc8)- Tick (39519000) - ISN: (61096) :: S -> (0xe0) at (0x6be3c8) of Size = (8) -- vaddr (0x6be3c8) -- paddr (0xbe3c8) 

-- PC: (0x400bcf)- Tick (39519000) - ISN: (61098) :: L from (0x6be3c8) of Size = (8) -- vaddr (0x6be3c8) -- paddr (0xbe3c8) 

-- PC: (0x400bdd)- Tick (39519000) - ISN: (61102) :: L from (0x7c03e8) of Size = (8) -- vaddr (0x7c03e8) -- paddr (0x1c03e8) 

-- ReadReq [1c03e8:1c03ef] Hit -- Blk -> state: f (M) valid: 1 writable: 1 readable: 1 dirty: 1 | tag: 0x38 set: 0xf way: 0 Latency: 2 

-- PC: (0x400bd6)- Tick (39520000) - ISN: (61100) :: S -> (0xe0) at (0x7c03e8) of Size = (8) -- vaddr (0x7c03e8) -- paddr (0x1c03e8) 

-- PC: (0x400be4)- Tick (39520500) - ISN: (61103) :: L from (0x6bc3c0) of Size = (1) -- vaddr (0x6bc3c0) -- paddr (0xbc3c0) 

-- ReadReq [bc3c0:bc3c0] Hit -- Blk -> state: f (M) valid: 1 writable: 1 readable: 1 dirty: 1 | tag: 0x17 set: 0x10f way: 0 Latency: 2 

-- Sqsh -> ISN (61101)

-- WriteReq [be3c8:be3cf] Miss --  Latency: 502 

-- ReadReq [bc0:bff] IF Hit -- Blk -> state: 7 (E) valid: 1 writable: 1 readable: 1 dirty: 0 | tag: 0x2 set: 0xf way: 0 Latency: 2 

-- ReadReq [c00:c3f] IF Hit -- Blk -> state: 7 (E) valid: 1 writable: 1 readable: 1 dirty: 0 | tag: 0x3 set: 0 way: 0 Latency: 2 

-- ReadReq [c40:c7f] IF Hit -- Blk -> state: 7 (E) valid: 1 writable: 1 readable: 1 dirty: 0 | tag: 0x3 set: 0x1 way: 0 Latency: 2 

-- WriteReq [1c03e8:1c03ef] Hit -- Blk -> state: f (M) valid: 1 writable: 1 readable: 1 dirty: 1 | tag: 0x38 set: 0xf way: 0 Latency: 2 

-- PC: (0x400bdd)- Tick (39603000) - ISN: (61164) :: L from (0x7c03e8) of Size = (8) -- vaddr (0x7c03e8) -- paddr (0x1c03e8) 

-- ReadReq [1c03e8:1c03ef] Hit -- Blk -> state: f (M) valid: 1 writable: 1 readable: 1 dirty: 1 | tag: 0x38 set: 0xf way: 0 Latency: 2 

-- PC: (0x400be4)- Tick (39604500) - ISN: (61165) :: L from (0x7be3e0) of Size = (1) -- vaddr (0x7be3e0) -- paddr (0x1be3e0) 

-- ReadReq [1be3e0:1be3e0] Miss --  Latency: 502 

-- PC: (0x400be7)- Tick (39628000) - ISN: (61168) :: S -> (0x5) at (0x6be3d8) of Size = (1) -- vaddr (0x6be3d8) -- paddr (0xbe3d8) 

-- WriteReq [be3d8:be3d8] Miss --  Latency: 502 

-- ReadReq [bc0:bff] IF Hit -- Blk -> state: 7 (E) valid: 1 writable: 1 readable: 1 dirty: 0 | tag: 0x2 set: 0xf way: 0 Latency: 2 

-- Sqsh -> ISN (61176)

-- PC: (0x400bf8)- Tick (39656500) - ISN: (61174) :: S -> (0xfd) at (0x7fffffffed18) of Size = (8) -- vaddr (0x7fffffffed18) -- paddr (0x1c1d18) 

-- ReadReq [c80:cbf] IF Hit -- Blk -> state: 7 (E) valid: 1 writable: 1 readable: 1 dirty: 0 | tag: 0x3 set: 0x2 way: 0 Latency: 2 

-- ReadReq [bc0:bff] IF Hit -- Blk -> state: 7 (E) valid: 1 writable: 1 readable: 1 dirty: 0 | tag: 0x2 set: 0xf way: 0 Latency: 2 

-- WriteReq [1c1d18:1c1d1f] Hit -- Blk -> state: f (M) valid: 1 writable: 1 readable: 1 dirty: 1 | tag: 0x38 set: 0x74 way: 0 Latency: 2 

-- ReadReq [c00:c3f] IF Hit -- Blk -> state: 7 (E) valid: 1 writable: 1 readable: 1 dirty: 0 | tag: 0x3 set: 0 way: 0 Latency: 2 

-- ReadReq [c40:c7f] IF Hit -- Blk -> state: 7 (E) valid: 1 writable: 1 readable: 1 dirty: 0 | tag: 0x3 set: 0x1 way: 0 Latency: 2 

-- PC: (0x400c9c)- Tick (39661500) - ISN: (61229) :: L from (0x7fffffffed18) of Size = (8) -- vaddr (0x7fffffffed18) -- paddr (0x1c1d18) 

-- ReadReq [1c1d18:1c1d1f] Hit -- Blk -> state: f (M) valid: 1 writable: 1 readable: 1 dirty: 1 | tag: 0x38 set: 0x74 way: 0 Latency: 2 

HERE 2 : enable_memreq_tracing = 0
Exiting @ tick 54948000 because exiting with last active thread context
