gem5 Simulator System.  http://gem5.org
gem5 is copyrighted software; use the --copyright option for details.

gem5 compiled Mar 16 2020 21:39:00
gem5 started Mar 16 2020 22:43:39
gem5 executing on tarund-desk, pid 26722
command line: build/X86/gem5.opt configs/example/se.py --cmd=./tests/my_progs/spectre_test_3 --cpu-type=DerivO3CPU --caches --mem-size=4GB --l1d_size=32kB --l1i_size=32kB --l1d_assoc=4 --l1i_assoc=4 --cacheline_size=64

Global frequency set at 1000000000000 ticks per second
**** REAL SIMULATION ****

Address of a1_len = 0x6b90f0 

Address of i = 0x7fffffffed10 

Address of j = 0x7fffffffed14 

Address of x = 0x6bc3a0 

Address of y = 0x6bc428 

Address of array1 = 0x6bc440 

Address of array2 = 0x6bc3c0 

Address of array3 = 0x6bc5e0 
HERE 1 : enable_memreq_tracing = 1
-- Tick (34064000) -- ISN: (92899) : L from (0x7fffffffed10) -- of Size = (4) -- vaddr (0x7fffffffed10) -- paddr (0xc5d10) 

-- Tick (34064500) -- ISN: (92910) : L from (0x7fffffffed14) -- of Size = (4) -- vaddr (0x7fffffffed14) -- paddr (0xc5d14) 

-- Tick (34065000) -- ISN: (92894) : S -> 0x(5) at (0x6bc440) -- Size = (4) -- vaddr (0x6bc440) -- paddr (0xbc440) 

-- Tick (34065000) -- ISN: (92898) : S -> 0x(1) at (0x7fffffffed10) -- Size = (4) -- vaddr (0x7fffffffed10) -- paddr (0xc5d10) 

-- Tick (34065000) -- ISN: (92906) : S -> 0x(0) at (0x7fffffffed14) -- Size = (4) -- vaddr (0x7fffffffed14) -- paddr (0xc5d14) 

-- Tick (34065500) -- ISN: (92914) : S -> 0x(0) at (0x7fffffffed08) -- Size = (8) -- vaddr (0x7fffffffed08) -- paddr (0xc5d08) 

-- Tick (34065500) -- ISN: (92917) : L from (0x7fffffffed14) -- of Size = (4) -- vaddr (0x7fffffffed14) -- paddr (0xc5d14) 

-- Tick (34065500) -- ISN: (92921) : L from (0x7fffffffed14) -- of Size = (4) -- vaddr (0x7fffffffed14) -- paddr (0xc5d14) 

-- Sqsh -> ISN (92898)

-- Tick (34071500) -- ISN: (92954) : L from (0x7fffffffed10) -- of Size = (4) -- vaddr (0x7fffffffed10) -- paddr (0xc5d10) 

-- Tick (34072000) -- ISN: (92961) : S -> 0x(0) at (0x7fffffffed14) -- Size = (4) -- vaddr (0x7fffffffed14) -- paddr (0xc5d14) 

-- Tick (34072500) -- ISN: (92965) : L from (0x7fffffffed14) -- of Size = (4) -- vaddr (0x7fffffffed14) -- paddr (0xc5d14) 

-- Tick (34073000) -- ISN: (92969) : S -> 0x(0) at (0x7fffffffed08) -- Size = (8) -- vaddr (0x7fffffffed08) -- paddr (0xc5d08) 

-- Tick (34073000) -- ISN: (92972) : L from (0x7fffffffed14) -- of Size = (4) -- vaddr (0x7fffffffed14) -- paddr (0xc5d14) 

-- Tick (34073000) -- ISN: (92976) : L from (0x7fffffffed14) -- of Size = (4) -- vaddr (0x7fffffffed14) -- paddr (0xc5d14) 

-- Sqsh -> ISN (92959)

-- Tick (34079500) -- ISN: (93009) : L from (0x7fffffffed10) -- of Size = (4) -- vaddr (0x7fffffffed10) -- paddr (0xc5d10) 

-- Tick (34079500) -- ISN: (93016) : L from (0x7fffffffed10) -- of Size = (4) -- vaddr (0x7fffffffed10) -- paddr (0xc5d10) 

-- Tick (34081000) -- ISN: (93031) : L from (0x7fffffffed14) -- of Size = (4) -- vaddr (0x7fffffffed14) -- paddr (0xc5d14) 

-- Tick (34081500) -- ISN: (93015) : S -> 0x(5) at (0x6bc444) -- Size = (4) -- vaddr (0x6bc444) -- paddr (0xbc444) 

-- Tick (34081500) -- ISN: (93019) : S -> 0x(2) at (0x7fffffffed10) -- Size = (4) -- vaddr (0x7fffffffed10) -- paddr (0xc5d10) 

-- Tick (34081500) -- ISN: (93027) : S -> 0x(0) at (0x7fffffffed14) -- Size = (4) -- vaddr (0x7fffffffed14) -- paddr (0xc5d14) 

-- Tick (34081500) -- ISN: (93038) : L from (0x7fffffffed14) -- of Size = (4) -- vaddr (0x7fffffffed14) -- paddr (0xc5d14) 

-- Tick (34082000) -- ISN: (93020) : L from (0x7fffffffed10) -- of Size = (4) -- vaddr (0x7fffffffed10) -- paddr (0xc5d10) 

-- Tick (34082000) -- ISN: (93035) : S -> 0x(0) at (0x7fffffffed08) -- Size = (8) -- vaddr (0x7fffffffed08) -- paddr (0xc5d08) 

-- Tick (34082000) -- ISN: (93042) : L from (0x7fffffffed14) -- of Size = (4) -- vaddr (0x7fffffffed14) -- paddr (0xc5d14) 

-- Sqsh -> ISN (93030)

-- Sqsh -> ISN (93025)

-- Tick (34089500) -- ISN: (93083) : L from (0x7fffffffed10) -- of Size = (4) -- vaddr (0x7fffffffed10) -- paddr (0xc5d10) 

-- Tick (34089500) -- ISN: (93090) : L from (0x7fffffffed10) -- of Size = (4) -- vaddr (0x7fffffffed10) -- paddr (0xc5d10) 

-- Tick (34091500) -- ISN: (93089) : S -> 0x(5) at (0x6bc448) -- Size = (4) -- vaddr (0x6bc448) -- paddr (0xbc448) 

-- Tick (34091500) -- ISN: (93093) : S -> 0x(3) at (0x7fffffffed10) -- Size = (4) -- vaddr (0x7fffffffed10) -- paddr (0xc5d10) 

-- Tick (34091500) -- ISN: (93112) : L from (0x7fffffffed14) -- of Size = (4) -- vaddr (0x7fffffffed14) -- paddr (0xc5d14) 

-- Tick (34092000) -- ISN: (93094) : L from (0x7fffffffed10) -- of Size = (4) -- vaddr (0x7fffffffed10) -- paddr (0xc5d10) 

-- Tick (34092000) -- ISN: (93101) : S -> 0x(0) at (0x7fffffffed14) -- Size = (4) -- vaddr (0x7fffffffed14) -- paddr (0xc5d14) 

-- Tick (34092000) -- ISN: (93109) : S -> 0x(0) at (0x7fffffffed08) -- Size = (8) -- vaddr (0x7fffffffed08) -- paddr (0xc5d08) 

-- Tick (34092000) -- ISN: (93116) : L from (0x7fffffffed14) -- of Size = (4) -- vaddr (0x7fffffffed14) -- paddr (0xc5d14) 

-- Sqsh -> ISN (93104)

-- Sqsh -> ISN (93099)

-- Tick (34099500) -- ISN: (93157) : L from (0x7fffffffed10) -- of Size = (4) -- vaddr (0x7fffffffed10) -- paddr (0xc5d10) 

-- Tick (34099500) -- ISN: (93164) : L from (0x7fffffffed10) -- of Size = (4) -- vaddr (0x7fffffffed10) -- paddr (0xc5d10) 

-- Tick (34101000) -- ISN: (93179) : L from (0x7fffffffed14) -- of Size = (4) -- vaddr (0x7fffffffed14) -- paddr (0xc5d14) 

-- Tick (34101500) -- ISN: (93163) : S -> 0x(5) at (0x6bc44c) -- Size = (4) -- vaddr (0x6bc44c) -- paddr (0xbc44c) 

-- Tick (34101500) -- ISN: (93167) : S -> 0x(4) at (0x7fffffffed10) -- Size = (4) -- vaddr (0x7fffffffed10) -- paddr (0xc5d10) 

-- Tick (34102000) -- ISN: (93168) : L from (0x7fffffffed10) -- of Size = (4) -- vaddr (0x7fffffffed10) -- paddr (0xc5d10) 

-- Tick (34102000) -- ISN: (93175) : S -> 0x(0) at (0x7fffffffed14) -- Size = (4) -- vaddr (0x7fffffffed14) -- paddr (0xc5d14) 

-- Sqsh -> ISN (93178)

-- Sqsh -> ISN (93173)

-- Tick (34109500) -- ISN: (93220) : L from (0x7fffffffed10) -- of Size = (4) -- vaddr (0x7fffffffed10) -- paddr (0xc5d10) 

-- Tick (34109500) -- ISN: (93227) : L from (0x7fffffffed10) -- of Size = (4) -- vaddr (0x7fffffffed10) -- paddr (0xc5d10) 

-- Tick (34111000) -- ISN: (93237) : L from (0x7fffffffed10) -- of Size = (4) -- vaddr (0x7fffffffed10) -- paddr (0xc5d10) 

-- Tick (34111500) -- ISN: (93226) : S -> 0x(5) at (0x6bc450) -- Size = (4) -- vaddr (0x6bc450) -- paddr (0xbc450) 

-- Tick (34111500) -- ISN: (93230) : S -> 0x(5) at (0x7fffffffed10) -- Size = (4) -- vaddr (0x7fffffffed10) -- paddr (0xc5d10) 

-- Tick (34111500) -- ISN: (93244) : L from (0x7fffffffed10) -- of Size = (4) -- vaddr (0x7fffffffed10) -- paddr (0xc5d10) 

-- Tick (34112000) -- ISN: (93231) : L from (0x7fffffffed10) -- of Size = (4) -- vaddr (0x7fffffffed10) -- paddr (0xc5d10) 

-- Tick (34112000) -- ISN: (93254) : L from (0x7fffffffed10) -- of Size = (4) -- vaddr (0x7fffffffed10) -- paddr (0xc5d10) 

-- Sqsh -> ISN (93236)

-- Tick (34116500) -- ISN: (93296) : L from (0x7fffffffed10) -- of Size = (4) -- vaddr (0x7fffffffed10) -- paddr (0xc5d10) 

-- Tick (34116500) -- ISN: (93303) : L from (0x7fffffffed10) -- of Size = (4) -- vaddr (0x7fffffffed10) -- paddr (0xc5d10) 

-- Tick (34118500) -- ISN: (93302) : S -> 0x(5) at (0x6bc454) -- Size = (4) -- vaddr (0x6bc454) -- paddr (0xbc454) 

-- Tick (34118500) -- ISN: (93306) : S -> 0x(6) at (0x7fffffffed10) -- Size = (4) -- vaddr (0x7fffffffed10) -- paddr (0xc5d10) 

-- Tick (34119000) -- ISN: (93307) : L from (0x7fffffffed10) -- of Size = (4) -- vaddr (0x7fffffffed10) -- paddr (0xc5d10) 

-- Tick (34119000) -- ISN: (93313) : L from (0x7fffffffed10) -- of Size = (4) -- vaddr (0x7fffffffed10) -- paddr (0xc5d10) 

-- Tick (34119000) -- ISN: (93320) : L from (0x7fffffffed10) -- of Size = (4) -- vaddr (0x7fffffffed10) -- paddr (0xc5d10) 

-- Tick (34120500) -- ISN: (93323) : S -> 0x(7) at (0x7fffffffed10) -- Size = (4) -- vaddr (0x7fffffffed10) -- paddr (0xc5d10) 

-- Tick (34120500) -- ISN: (93337) : L from (0x7fffffffed10) -- of Size = (4) -- vaddr (0x7fffffffed10) -- paddr (0xc5d10) 

-- Tick (34121000) -- ISN: (93319) : S -> 0x(5) at (0x6bc458) -- Size = (4) -- vaddr (0x6bc458) -- paddr (0xbc458) 

-- Tick (34121000) -- ISN: (93324) : L from (0x7fffffffed10) -- of Size = (4) -- vaddr (0x7fffffffed10) -- paddr (0xc5d10) 

-- Tick (34121000) -- ISN: (93330) : L from (0x7fffffffed10) -- of Size = (4) -- vaddr (0x7fffffffed10) -- paddr (0xc5d10) 

-- Tick (34121500) -- ISN: (93354) : L from (0x7fffffffed10) -- of Size = (4) -- vaddr (0x7fffffffed10) -- paddr (0xc5d10) 

-- Tick (34122000) -- ISN: (93340) : S -> 0x(8) at (0x7fffffffed10) -- Size = (4) -- vaddr (0x7fffffffed10) -- paddr (0xc5d10) 

-- Tick (34122500) -- ISN: (93341) : L from (0x7fffffffed10) -- of Size = (4) -- vaddr (0x7fffffffed10) -- paddr (0xc5d10) 

-- Tick (34122500) -- ISN: (93347) : L from (0x7fffffffed10) -- of Size = (4) -- vaddr (0x7fffffffed10) -- paddr (0xc5d10) 

-- Tick (34122500) -- ISN: (93371) : L from (0x7fffffffed10) -- of Size = (4) -- vaddr (0x7fffffffed10) -- paddr (0xc5d10) 

-- Sqsh -> ISN (93353)

-- Tick (34123000) -- ISN: (93336) : S -> 0x(5) at (0x6bc45c) -- Size = (4) -- vaddr (0x6bc45c) -- paddr (0xbc45c) 

-- Tick (34124500) -- ISN: (93353) : S -> 0x(5) at (0x6bc460) -- Size = (4) -- vaddr (0x6bc460) -- paddr (0xbc460) 

-- Tick (34127000) -- ISN: (93414) : L from (0x7fffffffed10) -- of Size = (4) -- vaddr (0x7fffffffed10) -- paddr (0xc5d10) 

-- Tick (34128500) -- ISN: (93417) : S -> 0x(9) at (0x7fffffffed10) -- Size = (4) -- vaddr (0x7fffffffed10) -- paddr (0xc5d10) 

-- Tick (34129000) -- ISN: (93418) : L from (0x7fffffffed10) -- of Size = (4) -- vaddr (0x7fffffffed10) -- paddr (0xc5d10) 

-- Tick (34129000) -- ISN: (93424) : L from (0x7fffffffed10) -- of Size = (4) -- vaddr (0x7fffffffed10) -- paddr (0xc5d10) 

-- Tick (34129000) -- ISN: (93431) : L from (0x7fffffffed10) -- of Size = (4) -- vaddr (0x7fffffffed10) -- paddr (0xc5d10) 

-- Tick (34130500) -- ISN: (93434) : S -> 0x(a) at (0x7fffffffed10) -- Size = (4) -- vaddr (0x7fffffffed10) -- paddr (0xc5d10) 

-- Tick (34131000) -- ISN: (93430) : S -> 0x(5) at (0x6bc464) -- Size = (4) -- vaddr (0x6bc464) -- paddr (0xbc464) 

-- Tick (34131000) -- ISN: (93435) : L from (0x7fffffffed10) -- of Size = (4) -- vaddr (0x7fffffffed10) -- paddr (0xc5d10) 

-- Tick (34131000) -- ISN: (93441) : L from (0x7fffffffed10) -- of Size = (4) -- vaddr (0x7fffffffed10) -- paddr (0xc5d10) 

-- Tick (34131000) -- ISN: (93448) : L from (0x7fffffffed10) -- of Size = (4) -- vaddr (0x7fffffffed10) -- paddr (0xc5d10) 

-- Tick (34132500) -- ISN: (93451) : S -> 0x(b) at (0x7fffffffed10) -- Size = (4) -- vaddr (0x7fffffffed10) -- paddr (0xc5d10) 

-- Tick (34133000) -- ISN: (93447) : S -> 0x(5) at (0x6bc468) -- Size = (4) -- vaddr (0x6bc468) -- paddr (0xbc468) 

-- Tick (34133000) -- ISN: (93452) : L from (0x7fffffffed10) -- of Size = (4) -- vaddr (0x7fffffffed10) -- paddr (0xc5d10) 

-- Tick (34133000) -- ISN: (93458) : L from (0x7fffffffed10) -- of Size = (4) -- vaddr (0x7fffffffed10) -- paddr (0xc5d10) 

-- Tick (34133000) -- ISN: (93465) : L from (0x7fffffffed10) -- of Size = (4) -- vaddr (0x7fffffffed10) -- paddr (0xc5d10) 

-- Tick (34134500) -- ISN: (93468) : S -> 0x(c) at (0x7fffffffed10) -- Size = (4) -- vaddr (0x7fffffffed10) -- paddr (0xc5d10) 

-- Tick (34135000) -- ISN: (93464) : S -> 0x(5) at (0x6bc46c) -- Size = (4) -- vaddr (0x6bc46c) -- paddr (0xbc46c) 

-- Tick (34135000) -- ISN: (93469) : L from (0x7fffffffed10) -- of Size = (4) -- vaddr (0x7fffffffed10) -- paddr (0xc5d10) 

-- Tick (34135000) -- ISN: (93475) : L from (0x7fffffffed10) -- of Size = (4) -- vaddr (0x7fffffffed10) -- paddr (0xc5d10) 

-- Tick (34135000) -- ISN: (93482) : L from (0x7fffffffed10) -- of Size = (4) -- vaddr (0x7fffffffed10) -- paddr (0xc5d10) 

-- Tick (34136500) -- ISN: (93485) : S -> 0x(d) at (0x7fffffffed10) -- Size = (4) -- vaddr (0x7fffffffed10) -- paddr (0xc5d10) 

-- Tick (34137000) -- ISN: (93481) : S -> 0x(5) at (0x6bc470) -- Size = (4) -- vaddr (0x6bc470) -- paddr (0xbc470) 

-- Tick (34137000) -- ISN: (93486) : L from (0x7fffffffed10) -- of Size = (4) -- vaddr (0x7fffffffed10) -- paddr (0xc5d10) 

-- Tick (34137000) -- ISN: (93492) : L from (0x7fffffffed10) -- of Size = (4) -- vaddr (0x7fffffffed10) -- paddr (0xc5d10) 

-- Tick (34137000) -- ISN: (93499) : L from (0x7fffffffed10) -- of Size = (4) -- vaddr (0x7fffffffed10) -- paddr (0xc5d10) 

-- Tick (34138500) -- ISN: (93502) : S -> 0x(e) at (0x7fffffffed10) -- Size = (4) -- vaddr (0x7fffffffed10) -- paddr (0xc5d10) 

-- Tick (34139000) -- ISN: (93498) : S -> 0x(5) at (0x6bc474) -- Size = (4) -- vaddr (0x6bc474) -- paddr (0xbc474) 

-- Tick (34139000) -- ISN: (93503) : L from (0x7fffffffed10) -- of Size = (4) -- vaddr (0x7fffffffed10) -- paddr (0xc5d10) 

-- Tick (34139000) -- ISN: (93509) : L from (0x7fffffffed10) -- of Size = (4) -- vaddr (0x7fffffffed10) -- paddr (0xc5d10) 

-- Tick (34139000) -- ISN: (93516) : L from (0x7fffffffed10) -- of Size = (4) -- vaddr (0x7fffffffed10) -- paddr (0xc5d10) 

-- Tick (34140500) -- ISN: (93519) : S -> 0x(f) at (0x7fffffffed10) -- Size = (4) -- vaddr (0x7fffffffed10) -- paddr (0xc5d10) 

-- Tick (34141000) -- ISN: (93515) : S -> 0x(5) at (0x6bc478) -- Size = (4) -- vaddr (0x6bc478) -- paddr (0xbc478) 

-- Tick (34141000) -- ISN: (93520) : L from (0x7fffffffed10) -- of Size = (4) -- vaddr (0x7fffffffed10) -- paddr (0xc5d10) 

-- Tick (34141000) -- ISN: (93526) : L from (0x7fffffffed10) -- of Size = (4) -- vaddr (0x7fffffffed10) -- paddr (0xc5d10) 

-- Tick (34141000) -- ISN: (93533) : L from (0x7fffffffed10) -- of Size = (4) -- vaddr (0x7fffffffed10) -- paddr (0xc5d10) 

-- Tick (34142500) -- ISN: (93536) : S -> 0x(10) at (0x7fffffffed10) -- Size = (4) -- vaddr (0x7fffffffed10) -- paddr (0xc5d10) 

-- Tick (34143000) -- ISN: (93532) : S -> 0x(5) at (0x6bc47c) -- Size = (4) -- vaddr (0x6bc47c) -- paddr (0xbc47c) 

-- Tick (34143000) -- ISN: (93537) : L from (0x7fffffffed10) -- of Size = (4) -- vaddr (0x7fffffffed10) -- paddr (0xc5d10) 

-- Tick (34143000) -- ISN: (93543) : L from (0x7fffffffed10) -- of Size = (4) -- vaddr (0x7fffffffed10) -- paddr (0xc5d10) 

-- Tick (34143000) -- ISN: (93550) : L from (0x7fffffffed10) -- of Size = (4) -- vaddr (0x7fffffffed10) -- paddr (0xc5d10) 

-- Tick (34144500) -- ISN: (93553) : S -> 0x(11) at (0x7fffffffed10) -- Size = (4) -- vaddr (0x7fffffffed10) -- paddr (0xc5d10) 

-- Tick (34145000) -- ISN: (93549) : S -> 0x(5) at (0x6bc480) -- Size = (4) -- vaddr (0x6bc480) -- paddr (0xbc480) 

-- Tick (34145000) -- ISN: (93554) : L from (0x7fffffffed10) -- of Size = (4) -- vaddr (0x7fffffffed10) -- paddr (0xc5d10) 

-- Tick (34145000) -- ISN: (93560) : L from (0x7fffffffed10) -- of Size = (4) -- vaddr (0x7fffffffed10) -- paddr (0xc5d10) 

-- Tick (34145000) -- ISN: (93567) : L from (0x7fffffffed10) -- of Size = (4) -- vaddr (0x7fffffffed10) -- paddr (0xc5d10) 

-- Tick (34146500) -- ISN: (93570) : S -> 0x(12) at (0x7fffffffed10) -- Size = (4) -- vaddr (0x7fffffffed10) -- paddr (0xc5d10) 

-- Tick (34147000) -- ISN: (93566) : S -> 0x(5) at (0x6bc484) -- Size = (4) -- vaddr (0x6bc484) -- paddr (0xbc484) 

-- Tick (34147000) -- ISN: (93571) : L from (0x7fffffffed10) -- of Size = (4) -- vaddr (0x7fffffffed10) -- paddr (0xc5d10) 

-- Tick (34147000) -- ISN: (93577) : L from (0x7fffffffed10) -- of Size = (4) -- vaddr (0x7fffffffed10) -- paddr (0xc5d10) 

-- Tick (34147000) -- ISN: (93584) : L from (0x7fffffffed10) -- of Size = (4) -- vaddr (0x7fffffffed10) -- paddr (0xc5d10) 

-- Tick (34148500) -- ISN: (93587) : S -> 0x(13) at (0x7fffffffed10) -- Size = (4) -- vaddr (0x7fffffffed10) -- paddr (0xc5d10) 

-- Tick (34149000) -- ISN: (93583) : S -> 0x(5) at (0x6bc488) -- Size = (4) -- vaddr (0x6bc488) -- paddr (0xbc488) 

-- Tick (34149000) -- ISN: (93588) : L from (0x7fffffffed10) -- of Size = (4) -- vaddr (0x7fffffffed10) -- paddr (0xc5d10) 

-- Tick (34149000) -- ISN: (93594) : L from (0x7fffffffed10) -- of Size = (4) -- vaddr (0x7fffffffed10) -- paddr (0xc5d10) 

-- Tick (34149000) -- ISN: (93601) : L from (0x7fffffffed10) -- of Size = (4) -- vaddr (0x7fffffffed10) -- paddr (0xc5d10) 

-- Tick (34150500) -- ISN: (93604) : S -> 0x(14) at (0x7fffffffed10) -- Size = (4) -- vaddr (0x7fffffffed10) -- paddr (0xc5d10) 

-- Tick (34151000) -- ISN: (93600) : S -> 0x(5) at (0x6bc48c) -- Size = (4) -- vaddr (0x6bc48c) -- paddr (0xbc48c) 

-- Tick (34151000) -- ISN: (93605) : L from (0x7fffffffed10) -- of Size = (4) -- vaddr (0x7fffffffed10) -- paddr (0xc5d10) 

-- Tick (34151000) -- ISN: (93611) : L from (0x7fffffffed10) -- of Size = (4) -- vaddr (0x7fffffffed10) -- paddr (0xc5d10) 

-- Tick (34151000) -- ISN: (93618) : L from (0x7fffffffed10) -- of Size = (4) -- vaddr (0x7fffffffed10) -- paddr (0xc5d10) 

-- Tick (34152500) -- ISN: (93621) : S -> 0x(15) at (0x7fffffffed10) -- Size = (4) -- vaddr (0x7fffffffed10) -- paddr (0xc5d10) 

-- Tick (34153000) -- ISN: (93617) : S -> 0x(5) at (0x6bc490) -- Size = (4) -- vaddr (0x6bc490) -- paddr (0xbc490) 

-- Tick (34153000) -- ISN: (93622) : L from (0x7fffffffed10) -- of Size = (4) -- vaddr (0x7fffffffed10) -- paddr (0xc5d10) 

-- Tick (34153000) -- ISN: (93628) : L from (0x7fffffffed10) -- of Size = (4) -- vaddr (0x7fffffffed10) -- paddr (0xc5d10) 

-- Tick (34153000) -- ISN: (93635) : L from (0x7fffffffed10) -- of Size = (4) -- vaddr (0x7fffffffed10) -- paddr (0xc5d10) 

-- Tick (34154500) -- ISN: (93638) : S -> 0x(16) at (0x7fffffffed10) -- Size = (4) -- vaddr (0x7fffffffed10) -- paddr (0xc5d10) 

-- Tick (34155000) -- ISN: (93634) : S -> 0x(5) at (0x6bc494) -- Size = (4) -- vaddr (0x6bc494) -- paddr (0xbc494) 

-- Tick (34155000) -- ISN: (93639) : L from (0x7fffffffed10) -- of Size = (4) -- vaddr (0x7fffffffed10) -- paddr (0xc5d10) 

-- Tick (34155000) -- ISN: (93645) : L from (0x7fffffffed10) -- of Size = (4) -- vaddr (0x7fffffffed10) -- paddr (0xc5d10) 

-- Tick (34155000) -- ISN: (93652) : L from (0x7fffffffed10) -- of Size = (4) -- vaddr (0x7fffffffed10) -- paddr (0xc5d10) 

-- Tick (34156500) -- ISN: (93655) : S -> 0x(17) at (0x7fffffffed10) -- Size = (4) -- vaddr (0x7fffffffed10) -- paddr (0xc5d10) 

-- Tick (34157000) -- ISN: (93651) : S -> 0x(5) at (0x6bc498) -- Size = (4) -- vaddr (0x6bc498) -- paddr (0xbc498) 

-- Tick (34157000) -- ISN: (93656) : L from (0x7fffffffed10) -- of Size = (4) -- vaddr (0x7fffffffed10) -- paddr (0xc5d10) 

-- Tick (34157000) -- ISN: (93662) : L from (0x7fffffffed10) -- of Size = (4) -- vaddr (0x7fffffffed10) -- paddr (0xc5d10) 

-- Tick (34157000) -- ISN: (93669) : L from (0x7fffffffed10) -- of Size = (4) -- vaddr (0x7fffffffed10) -- paddr (0xc5d10) 

-- Tick (34158500) -- ISN: (93672) : S -> 0x(18) at (0x7fffffffed10) -- Size = (4) -- vaddr (0x7fffffffed10) -- paddr (0xc5d10) 

-- Tick (34159000) -- ISN: (93668) : S -> 0x(5) at (0x6bc49c) -- Size = (4) -- vaddr (0x6bc49c) -- paddr (0xbc49c) 

-- Tick (34159000) -- ISN: (93673) : L from (0x7fffffffed10) -- of Size = (4) -- vaddr (0x7fffffffed10) -- paddr (0xc5d10) 

-- Tick (34159000) -- ISN: (93679) : L from (0x7fffffffed10) -- of Size = (4) -- vaddr (0x7fffffffed10) -- paddr (0xc5d10) 

-- Tick (34159000) -- ISN: (93686) : L from (0x7fffffffed10) -- of Size = (4) -- vaddr (0x7fffffffed10) -- paddr (0xc5d10) 

-- Tick (34160500) -- ISN: (93689) : S -> 0x(19) at (0x7fffffffed10) -- Size = (4) -- vaddr (0x7fffffffed10) -- paddr (0xc5d10) 

-- Tick (34161000) -- ISN: (93685) : S -> 0x(5) at (0x6bc4a0) -- Size = (4) -- vaddr (0x6bc4a0) -- paddr (0xbc4a0) 

-- Tick (34161000) -- ISN: (93690) : L from (0x7fffffffed10) -- of Size = (4) -- vaddr (0x7fffffffed10) -- paddr (0xc5d10) 

-- Tick (34161000) -- ISN: (93696) : L from (0x7fffffffed10) -- of Size = (4) -- vaddr (0x7fffffffed10) -- paddr (0xc5d10) 

-- Tick (34161000) -- ISN: (93703) : L from (0x7fffffffed10) -- of Size = (4) -- vaddr (0x7fffffffed10) -- paddr (0xc5d10) 

-- Tick (34162500) -- ISN: (93706) : S -> 0x(1a) at (0x7fffffffed10) -- Size = (4) -- vaddr (0x7fffffffed10) -- paddr (0xc5d10) 

-- Tick (34163000) -- ISN: (93702) : S -> 0x(5) at (0x6bc4a4) -- Size = (4) -- vaddr (0x6bc4a4) -- paddr (0xbc4a4) 

-- Tick (34163000) -- ISN: (93707) : L from (0x7fffffffed10) -- of Size = (4) -- vaddr (0x7fffffffed10) -- paddr (0xc5d10) 

-- Tick (34163000) -- ISN: (93713) : L from (0x7fffffffed10) -- of Size = (4) -- vaddr (0x7fffffffed10) -- paddr (0xc5d10) 

-- Tick (34163000) -- ISN: (93720) : L from (0x7fffffffed10) -- of Size = (4) -- vaddr (0x7fffffffed10) -- paddr (0xc5d10) 

-- Tick (34164500) -- ISN: (93723) : S -> 0x(1b) at (0x7fffffffed10) -- Size = (4) -- vaddr (0x7fffffffed10) -- paddr (0xc5d10) 

-- Tick (34165000) -- ISN: (93719) : S -> 0x(5) at (0x6bc4a8) -- Size = (4) -- vaddr (0x6bc4a8) -- paddr (0xbc4a8) 

-- Tick (34165000) -- ISN: (93724) : L from (0x7fffffffed10) -- of Size = (4) -- vaddr (0x7fffffffed10) -- paddr (0xc5d10) 

-- Tick (34165000) -- ISN: (93730) : L from (0x7fffffffed10) -- of Size = (4) -- vaddr (0x7fffffffed10) -- paddr (0xc5d10) 

-- Tick (34165000) -- ISN: (93737) : L from (0x7fffffffed10) -- of Size = (4) -- vaddr (0x7fffffffed10) -- paddr (0xc5d10) 

-- Tick (34166500) -- ISN: (93740) : S -> 0x(1c) at (0x7fffffffed10) -- Size = (4) -- vaddr (0x7fffffffed10) -- paddr (0xc5d10) 

-- Tick (34167000) -- ISN: (93736) : S -> 0x(5) at (0x6bc4ac) -- Size = (4) -- vaddr (0x6bc4ac) -- paddr (0xbc4ac) 

-- Tick (34167000) -- ISN: (93741) : L from (0x7fffffffed10) -- of Size = (4) -- vaddr (0x7fffffffed10) -- paddr (0xc5d10) 

-- Tick (34167000) -- ISN: (93747) : L from (0x7fffffffed10) -- of Size = (4) -- vaddr (0x7fffffffed10) -- paddr (0xc5d10) 

-- Tick (34167000) -- ISN: (93754) : L from (0x7fffffffed10) -- of Size = (4) -- vaddr (0x7fffffffed10) -- paddr (0xc5d10) 

-- Tick (34168500) -- ISN: (93757) : S -> 0x(1d) at (0x7fffffffed10) -- Size = (4) -- vaddr (0x7fffffffed10) -- paddr (0xc5d10) 

-- Tick (34169000) -- ISN: (93753) : S -> 0x(5) at (0x6bc4b0) -- Size = (4) -- vaddr (0x6bc4b0) -- paddr (0xbc4b0) 

-- Tick (34169000) -- ISN: (93758) : L from (0x7fffffffed10) -- of Size = (4) -- vaddr (0x7fffffffed10) -- paddr (0xc5d10) 

-- Tick (34169000) -- ISN: (93764) : L from (0x7fffffffed10) -- of Size = (4) -- vaddr (0x7fffffffed10) -- paddr (0xc5d10) 

-- Tick (34169000) -- ISN: (93771) : L from (0x7fffffffed10) -- of Size = (4) -- vaddr (0x7fffffffed10) -- paddr (0xc5d10) 

-- Tick (34170500) -- ISN: (93774) : S -> 0x(1e) at (0x7fffffffed10) -- Size = (4) -- vaddr (0x7fffffffed10) -- paddr (0xc5d10) 

-- Tick (34171000) -- ISN: (93770) : S -> 0x(5) at (0x6bc4b4) -- Size = (4) -- vaddr (0x6bc4b4) -- paddr (0xbc4b4) 

-- Tick (34171000) -- ISN: (93775) : L from (0x7fffffffed10) -- of Size = (4) -- vaddr (0x7fffffffed10) -- paddr (0xc5d10) 

-- Tick (34171000) -- ISN: (93781) : L from (0x7fffffffed10) -- of Size = (4) -- vaddr (0x7fffffffed10) -- paddr (0xc5d10) 

-- Tick (34171000) -- ISN: (93788) : L from (0x7fffffffed10) -- of Size = (4) -- vaddr (0x7fffffffed10) -- paddr (0xc5d10) 

-- Tick (34172500) -- ISN: (93791) : S -> 0x(1f) at (0x7fffffffed10) -- Size = (4) -- vaddr (0x7fffffffed10) -- paddr (0xc5d10) 

-- Tick (34173000) -- ISN: (93787) : S -> 0x(5) at (0x6bc4b8) -- Size = (4) -- vaddr (0x6bc4b8) -- paddr (0xbc4b8) 

-- Tick (34173000) -- ISN: (93792) : L from (0x7fffffffed10) -- of Size = (4) -- vaddr (0x7fffffffed10) -- paddr (0xc5d10) 

-- Tick (34173000) -- ISN: (93798) : L from (0x7fffffffed10) -- of Size = (4) -- vaddr (0x7fffffffed10) -- paddr (0xc5d10) 

-- Tick (34173000) -- ISN: (93805) : L from (0x7fffffffed10) -- of Size = (4) -- vaddr (0x7fffffffed10) -- paddr (0xc5d10) 

-- Tick (34174500) -- ISN: (93808) : S -> 0x(20) at (0x7fffffffed10) -- Size = (4) -- vaddr (0x7fffffffed10) -- paddr (0xc5d10) 

-- Tick (34175000) -- ISN: (93804) : S -> 0x(5) at (0x6bc4bc) -- Size = (4) -- vaddr (0x6bc4bc) -- paddr (0xbc4bc) 

-- Tick (34175000) -- ISN: (93809) : L from (0x7fffffffed10) -- of Size = (4) -- vaddr (0x7fffffffed10) -- paddr (0xc5d10) 

-- Tick (34175000) -- ISN: (93815) : L from (0x7fffffffed10) -- of Size = (4) -- vaddr (0x7fffffffed10) -- paddr (0xc5d10) 

-- Tick (34175000) -- ISN: (93822) : L from (0x7fffffffed10) -- of Size = (4) -- vaddr (0x7fffffffed10) -- paddr (0xc5d10) 

-- Tick (34177000) -- ISN: (93821) : S -> 0x(5) at (0x6bc4c0) -- Size = (4) -- vaddr (0x6bc4c0) -- paddr (0xbc4c0) 

-- Tick (34204000) -- ISN: (93825) : S -> 0x(21) at (0x7fffffffed10) -- Size = (4) -- vaddr (0x7fffffffed10) -- paddr (0xc5d10) 

-- Tick (34204500) -- ISN: (93826) : L from (0x7fffffffed10) -- of Size = (4) -- vaddr (0x7fffffffed10) -- paddr (0xc5d10) 

-- Tick (34205000) -- ISN: (93832) : L from (0x7fffffffed10) -- of Size = (4) -- vaddr (0x7fffffffed10) -- paddr (0xc5d10) 

-- Tick (34205500) -- ISN: (93839) : L from (0x7fffffffed10) -- of Size = (4) -- vaddr (0x7fffffffed10) -- paddr (0xc5d10) 

-- Tick (34207000) -- ISN: (93838) : S -> 0x(5) at (0x6bc4c4) -- Size = (4) -- vaddr (0x6bc4c4) -- paddr (0xbc4c4) 

-- Tick (34207000) -- ISN: (93842) : S -> 0x(22) at (0x7fffffffed10) -- Size = (4) -- vaddr (0x7fffffffed10) -- paddr (0xc5d10) 

-- Tick (34207500) -- ISN: (93843) : L from (0x7fffffffed10) -- of Size = (4) -- vaddr (0x7fffffffed10) -- paddr (0xc5d10) 

-- Tick (34207500) -- ISN: (93849) : L from (0x7fffffffed10) -- of Size = (4) -- vaddr (0x7fffffffed10) -- paddr (0xc5d10) 

-- Tick (34207500) -- ISN: (93856) : L from (0x7fffffffed10) -- of Size = (4) -- vaddr (0x7fffffffed10) -- paddr (0xc5d10) 

-- Tick (34209000) -- ISN: (93859) : S -> 0x(23) at (0x7fffffffed10) -- Size = (4) -- vaddr (0x7fffffffed10) -- paddr (0xc5d10) 

-- Tick (34209500) -- ISN: (93855) : S -> 0x(5) at (0x6bc4c8) -- Size = (4) -- vaddr (0x6bc4c8) -- paddr (0xbc4c8) 

-- Tick (34209500) -- ISN: (93860) : L from (0x7fffffffed10) -- of Size = (4) -- vaddr (0x7fffffffed10) -- paddr (0xc5d10) 

-- Tick (34209500) -- ISN: (93866) : L from (0x7fffffffed10) -- of Size = (4) -- vaddr (0x7fffffffed10) -- paddr (0xc5d10) 

-- Tick (34209500) -- ISN: (93873) : L from (0x7fffffffed10) -- of Size = (4) -- vaddr (0x7fffffffed10) -- paddr (0xc5d10) 

-- Tick (34211000) -- ISN: (93876) : S -> 0x(24) at (0x7fffffffed10) -- Size = (4) -- vaddr (0x7fffffffed10) -- paddr (0xc5d10) 

-- Tick (34211500) -- ISN: (93872) : S -> 0x(5) at (0x6bc4cc) -- Size = (4) -- vaddr (0x6bc4cc) -- paddr (0xbc4cc) 

-- Tick (34211500) -- ISN: (93877) : L from (0x7fffffffed10) -- of Size = (4) -- vaddr (0x7fffffffed10) -- paddr (0xc5d10) 

-- Tick (34211500) -- ISN: (93883) : L from (0x7fffffffed10) -- of Size = (4) -- vaddr (0x7fffffffed10) -- paddr (0xc5d10) 

-- Tick (34211500) -- ISN: (93890) : L from (0x7fffffffed10) -- of Size = (4) -- vaddr (0x7fffffffed10) -- paddr (0xc5d10) 

-- Tick (34213000) -- ISN: (93893) : S -> 0x(25) at (0x7fffffffed10) -- Size = (4) -- vaddr (0x7fffffffed10) -- paddr (0xc5d10) 

-- Tick (34213500) -- ISN: (93889) : S -> 0x(5) at (0x6bc4d0) -- Size = (4) -- vaddr (0x6bc4d0) -- paddr (0xbc4d0) 

-- Tick (34213500) -- ISN: (93894) : L from (0x7fffffffed10) -- of Size = (4) -- vaddr (0x7fffffffed10) -- paddr (0xc5d10) 

-- Tick (34213500) -- ISN: (93900) : L from (0x7fffffffed10) -- of Size = (4) -- vaddr (0x7fffffffed10) -- paddr (0xc5d10) 

-- Tick (34213500) -- ISN: (93907) : L from (0x7fffffffed10) -- of Size = (4) -- vaddr (0x7fffffffed10) -- paddr (0xc5d10) 

-- Tick (34215000) -- ISN: (93910) : S -> 0x(26) at (0x7fffffffed10) -- Size = (4) -- vaddr (0x7fffffffed10) -- paddr (0xc5d10) 

-- Tick (34215500) -- ISN: (93906) : S -> 0x(5) at (0x6bc4d4) -- Size = (4) -- vaddr (0x6bc4d4) -- paddr (0xbc4d4) 

-- Tick (34215500) -- ISN: (93911) : L from (0x7fffffffed10) -- of Size = (4) -- vaddr (0x7fffffffed10) -- paddr (0xc5d10) 

-- Tick (34215500) -- ISN: (93917) : L from (0x7fffffffed10) -- of Size = (4) -- vaddr (0x7fffffffed10) -- paddr (0xc5d10) 

-- Tick (34216000) -- ISN: (93924) : L from (0x7fffffffed10) -- of Size = (4) -- vaddr (0x7fffffffed10) -- paddr (0xc5d10) 

-- Tick (34217500) -- ISN: (93923) : S -> 0x(5) at (0x6bc4d8) -- Size = (4) -- vaddr (0x6bc4d8) -- paddr (0xbc4d8) 

-- Tick (34217500) -- ISN: (93927) : S -> 0x(27) at (0x7fffffffed10) -- Size = (4) -- vaddr (0x7fffffffed10) -- paddr (0xc5d10) 

-- Tick (34218000) -- ISN: (93928) : L from (0x7fffffffed10) -- of Size = (4) -- vaddr (0x7fffffffed10) -- paddr (0xc5d10) 

-- Tick (34218000) -- ISN: (93934) : L from (0x7fffffffed10) -- of Size = (4) -- vaddr (0x7fffffffed10) -- paddr (0xc5d10) 

-- Tick (34218000) -- ISN: (93941) : L from (0x7fffffffed10) -- of Size = (4) -- vaddr (0x7fffffffed10) -- paddr (0xc5d10) 

-- Tick (34219500) -- ISN: (93944) : S -> 0x(28) at (0x7fffffffed10) -- Size = (4) -- vaddr (0x7fffffffed10) -- paddr (0xc5d10) 

-- Tick (34220000) -- ISN: (93940) : S -> 0x(5) at (0x6bc4dc) -- Size = (4) -- vaddr (0x6bc4dc) -- paddr (0xbc4dc) 

-- Tick (34220000) -- ISN: (93945) : L from (0x7fffffffed10) -- of Size = (4) -- vaddr (0x7fffffffed10) -- paddr (0xc5d10) 

-- Tick (34220000) -- ISN: (93951) : L from (0x7fffffffed10) -- of Size = (4) -- vaddr (0x7fffffffed10) -- paddr (0xc5d10) 

-- Tick (34220000) -- ISN: (93958) : L from (0x7fffffffed10) -- of Size = (4) -- vaddr (0x7fffffffed10) -- paddr (0xc5d10) 

-- Tick (34221500) -- ISN: (93961) : S -> 0x(29) at (0x7fffffffed10) -- Size = (4) -- vaddr (0x7fffffffed10) -- paddr (0xc5d10) 

-- Tick (34222000) -- ISN: (93957) : S -> 0x(5) at (0x6bc4e0) -- Size = (4) -- vaddr (0x6bc4e0) -- paddr (0xbc4e0) 

-- Tick (34222000) -- ISN: (93962) : L from (0x7fffffffed10) -- of Size = (4) -- vaddr (0x7fffffffed10) -- paddr (0xc5d10) 

-- Tick (34222000) -- ISN: (93968) : L from (0x7fffffffed10) -- of Size = (4) -- vaddr (0x7fffffffed10) -- paddr (0xc5d10) 

-- Tick (34222000) -- ISN: (93975) : L from (0x7fffffffed10) -- of Size = (4) -- vaddr (0x7fffffffed10) -- paddr (0xc5d10) 

-- Tick (34223500) -- ISN: (93978) : S -> 0x(2a) at (0x7fffffffed10) -- Size = (4) -- vaddr (0x7fffffffed10) -- paddr (0xc5d10) 

-- Tick (34224000) -- ISN: (93974) : S -> 0x(5) at (0x6bc4e4) -- Size = (4) -- vaddr (0x6bc4e4) -- paddr (0xbc4e4) 

-- Tick (34224000) -- ISN: (93979) : L from (0x7fffffffed10) -- of Size = (4) -- vaddr (0x7fffffffed10) -- paddr (0xc5d10) 

-- Tick (34224000) -- ISN: (93985) : L from (0x7fffffffed10) -- of Size = (4) -- vaddr (0x7fffffffed10) -- paddr (0xc5d10) 

-- Tick (34224000) -- ISN: (93992) : L from (0x7fffffffed10) -- of Size = (4) -- vaddr (0x7fffffffed10) -- paddr (0xc5d10) 

-- Tick (34225500) -- ISN: (93995) : S -> 0x(2b) at (0x7fffffffed10) -- Size = (4) -- vaddr (0x7fffffffed10) -- paddr (0xc5d10) 

-- Tick (34226000) -- ISN: (93991) : S -> 0x(5) at (0x6bc4e8) -- Size = (4) -- vaddr (0x6bc4e8) -- paddr (0xbc4e8) 

-- Tick (34226000) -- ISN: (93996) : L from (0x7fffffffed10) -- of Size = (4) -- vaddr (0x7fffffffed10) -- paddr (0xc5d10) 

-- Tick (34226000) -- ISN: (94002) : L from (0x7fffffffed10) -- of Size = (4) -- vaddr (0x7fffffffed10) -- paddr (0xc5d10) 

-- Tick (34226000) -- ISN: (94009) : L from (0x7fffffffed10) -- of Size = (4) -- vaddr (0x7fffffffed10) -- paddr (0xc5d10) 

-- Tick (34227500) -- ISN: (94012) : S -> 0x(2c) at (0x7fffffffed10) -- Size = (4) -- vaddr (0x7fffffffed10) -- paddr (0xc5d10) 

-- Tick (34228000) -- ISN: (94008) : S -> 0x(5) at (0x6bc4ec) -- Size = (4) -- vaddr (0x6bc4ec) -- paddr (0xbc4ec) 

-- Tick (34228000) -- ISN: (94013) : L from (0x7fffffffed10) -- of Size = (4) -- vaddr (0x7fffffffed10) -- paddr (0xc5d10) 

-- Tick (34228000) -- ISN: (94019) : L from (0x7fffffffed10) -- of Size = (4) -- vaddr (0x7fffffffed10) -- paddr (0xc5d10) 

-- Tick (34228000) -- ISN: (94026) : L from (0x7fffffffed10) -- of Size = (4) -- vaddr (0x7fffffffed10) -- paddr (0xc5d10) 

-- Tick (34229500) -- ISN: (94029) : S -> 0x(2d) at (0x7fffffffed10) -- Size = (4) -- vaddr (0x7fffffffed10) -- paddr (0xc5d10) 

-- Tick (34230000) -- ISN: (94025) : S -> 0x(5) at (0x6bc4f0) -- Size = (4) -- vaddr (0x6bc4f0) -- paddr (0xbc4f0) 

-- Tick (34230000) -- ISN: (94030) : L from (0x7fffffffed10) -- of Size = (4) -- vaddr (0x7fffffffed10) -- paddr (0xc5d10) 

-- Tick (34230000) -- ISN: (94036) : L from (0x7fffffffed10) -- of Size = (4) -- vaddr (0x7fffffffed10) -- paddr (0xc5d10) 

-- Tick (34230000) -- ISN: (94043) : L from (0x7fffffffed10) -- of Size = (4) -- vaddr (0x7fffffffed10) -- paddr (0xc5d10) 

-- Tick (34231500) -- ISN: (94046) : S -> 0x(2e) at (0x7fffffffed10) -- Size = (4) -- vaddr (0x7fffffffed10) -- paddr (0xc5d10) 

-- Tick (34232000) -- ISN: (94042) : S -> 0x(5) at (0x6bc4f4) -- Size = (4) -- vaddr (0x6bc4f4) -- paddr (0xbc4f4) 

-- Tick (34232000) -- ISN: (94047) : L from (0x7fffffffed10) -- of Size = (4) -- vaddr (0x7fffffffed10) -- paddr (0xc5d10) 

-- Tick (34232000) -- ISN: (94053) : L from (0x7fffffffed10) -- of Size = (4) -- vaddr (0x7fffffffed10) -- paddr (0xc5d10) 

-- Tick (34232000) -- ISN: (94060) : L from (0x7fffffffed10) -- of Size = (4) -- vaddr (0x7fffffffed10) -- paddr (0xc5d10) 

-- Tick (34233500) -- ISN: (94063) : S -> 0x(2f) at (0x7fffffffed10) -- Size = (4) -- vaddr (0x7fffffffed10) -- paddr (0xc5d10) 

-- Tick (34234000) -- ISN: (94059) : S -> 0x(5) at (0x6bc4f8) -- Size = (4) -- vaddr (0x6bc4f8) -- paddr (0xbc4f8) 

-- Tick (34234000) -- ISN: (94064) : L from (0x7fffffffed10) -- of Size = (4) -- vaddr (0x7fffffffed10) -- paddr (0xc5d10) 

-- Tick (34234000) -- ISN: (94070) : L from (0x7fffffffed10) -- of Size = (4) -- vaddr (0x7fffffffed10) -- paddr (0xc5d10) 

-- Tick (34234000) -- ISN: (94077) : L from (0x7fffffffed10) -- of Size = (4) -- vaddr (0x7fffffffed10) -- paddr (0xc5d10) 

-- Tick (34235500) -- ISN: (94080) : S -> 0x(30) at (0x7fffffffed10) -- Size = (4) -- vaddr (0x7fffffffed10) -- paddr (0xc5d10) 

-- Tick (34236000) -- ISN: (94076) : S -> 0x(5) at (0x6bc4fc) -- Size = (4) -- vaddr (0x6bc4fc) -- paddr (0xbc4fc) 

-- Tick (34236000) -- ISN: (94081) : L from (0x7fffffffed10) -- of Size = (4) -- vaddr (0x7fffffffed10) -- paddr (0xc5d10) 

-- Tick (34236000) -- ISN: (94087) : L from (0x7fffffffed10) -- of Size = (4) -- vaddr (0x7fffffffed10) -- paddr (0xc5d10) 

-- Tick (34236000) -- ISN: (94094) : L from (0x7fffffffed10) -- of Size = (4) -- vaddr (0x7fffffffed10) -- paddr (0xc5d10) 

-- Tick (34238000) -- ISN: (94093) : S -> 0x(5) at (0x6bc500) -- Size = (4) -- vaddr (0x6bc500) -- paddr (0xbc500) 

-- Tick (34286000) -- ISN: (94097) : S -> 0x(31) at (0x7fffffffed10) -- Size = (4) -- vaddr (0x7fffffffed10) -- paddr (0xc5d10) 

-- Tick (34286500) -- ISN: (94098) : L from (0x7fffffffed10) -- of Size = (4) -- vaddr (0x7fffffffed10) -- paddr (0xc5d10) 

-- Tick (34286500) -- ISN: (94104) : L from (0x7fffffffed10) -- of Size = (4) -- vaddr (0x7fffffffed10) -- paddr (0xc5d10) 

-- Tick (34287500) -- ISN: (94111) : L from (0x7fffffffed10) -- of Size = (4) -- vaddr (0x7fffffffed10) -- paddr (0xc5d10) 

-- Tick (34288500) -- ISN: (94110) : S -> 0x(5) at (0x6bc504) -- Size = (4) -- vaddr (0x6bc504) -- paddr (0xbc504) 

-- Tick (34289000) -- ISN: (94114) : S -> 0x(32) at (0x7fffffffed10) -- Size = (4) -- vaddr (0x7fffffffed10) -- paddr (0xc5d10) 

-- Tick (34289500) -- ISN: (94115) : L from (0x7fffffffed10) -- of Size = (4) -- vaddr (0x7fffffffed10) -- paddr (0xc5d10) 

-- Tick (34289500) -- ISN: (94121) : L from (0x7fffffffed10) -- of Size = (4) -- vaddr (0x7fffffffed10) -- paddr (0xc5d10) 

-- Tick (34289500) -- ISN: (94128) : L from (0x7fffffffed10) -- of Size = (4) -- vaddr (0x7fffffffed10) -- paddr (0xc5d10) 

-- Tick (34291000) -- ISN: (94131) : S -> 0x(33) at (0x7fffffffed10) -- Size = (4) -- vaddr (0x7fffffffed10) -- paddr (0xc5d10) 

-- Tick (34291500) -- ISN: (94127) : S -> 0x(5) at (0x6bc508) -- Size = (4) -- vaddr (0x6bc508) -- paddr (0xbc508) 

-- Tick (34291500) -- ISN: (94132) : L from (0x7fffffffed10) -- of Size = (4) -- vaddr (0x7fffffffed10) -- paddr (0xc5d10) 

-- Tick (34291500) -- ISN: (94138) : L from (0x7fffffffed10) -- of Size = (4) -- vaddr (0x7fffffffed10) -- paddr (0xc5d10) 

-- Tick (34291500) -- ISN: (94145) : L from (0x7fffffffed10) -- of Size = (4) -- vaddr (0x7fffffffed10) -- paddr (0xc5d10) 

-- Tick (34293000) -- ISN: (94148) : S -> 0x(34) at (0x7fffffffed10) -- Size = (4) -- vaddr (0x7fffffffed10) -- paddr (0xc5d10) 

-- Tick (34293500) -- ISN: (94144) : S -> 0x(5) at (0x6bc50c) -- Size = (4) -- vaddr (0x6bc50c) -- paddr (0xbc50c) 

-- Tick (34293500) -- ISN: (94149) : L from (0x7fffffffed10) -- of Size = (4) -- vaddr (0x7fffffffed10) -- paddr (0xc5d10) 

-- Tick (34293500) -- ISN: (94155) : L from (0x7fffffffed10) -- of Size = (4) -- vaddr (0x7fffffffed10) -- paddr (0xc5d10) 

-- Tick (34293500) -- ISN: (94162) : L from (0x7fffffffed10) -- of Size = (4) -- vaddr (0x7fffffffed10) -- paddr (0xc5d10) 

-- Tick (34295000) -- ISN: (94165) : S -> 0x(35) at (0x7fffffffed10) -- Size = (4) -- vaddr (0x7fffffffed10) -- paddr (0xc5d10) 

-- Tick (34295500) -- ISN: (94161) : S -> 0x(5) at (0x6bc510) -- Size = (4) -- vaddr (0x6bc510) -- paddr (0xbc510) 

-- Tick (34295500) -- ISN: (94166) : L from (0x7fffffffed10) -- of Size = (4) -- vaddr (0x7fffffffed10) -- paddr (0xc5d10) 

-- Tick (34295500) -- ISN: (94172) : L from (0x7fffffffed10) -- of Size = (4) -- vaddr (0x7fffffffed10) -- paddr (0xc5d10) 

-- Tick (34295500) -- ISN: (94179) : L from (0x7fffffffed10) -- of Size = (4) -- vaddr (0x7fffffffed10) -- paddr (0xc5d10) 

-- Tick (34297000) -- ISN: (94182) : S -> 0x(36) at (0x7fffffffed10) -- Size = (4) -- vaddr (0x7fffffffed10) -- paddr (0xc5d10) 

-- Tick (34297500) -- ISN: (94178) : S -> 0x(5) at (0x6bc514) -- Size = (4) -- vaddr (0x6bc514) -- paddr (0xbc514) 

-- Tick (34297500) -- ISN: (94183) : L from (0x7fffffffed10) -- of Size = (4) -- vaddr (0x7fffffffed10) -- paddr (0xc5d10) 

-- Tick (34297500) -- ISN: (94189) : L from (0x7fffffffed10) -- of Size = (4) -- vaddr (0x7fffffffed10) -- paddr (0xc5d10) 

-- Tick (34298000) -- ISN: (94196) : L from (0x7fffffffed10) -- of Size = (4) -- vaddr (0x7fffffffed10) -- paddr (0xc5d10) 

-- Tick (34299500) -- ISN: (94195) : S -> 0x(5) at (0x6bc518) -- Size = (4) -- vaddr (0x6bc518) -- paddr (0xbc518) 

-- Tick (34299500) -- ISN: (94199) : S -> 0x(37) at (0x7fffffffed10) -- Size = (4) -- vaddr (0x7fffffffed10) -- paddr (0xc5d10) 

-- Tick (34300000) -- ISN: (94200) : L from (0x7fffffffed10) -- of Size = (4) -- vaddr (0x7fffffffed10) -- paddr (0xc5d10) 

-- Tick (34300000) -- ISN: (94206) : L from (0x7fffffffed10) -- of Size = (4) -- vaddr (0x7fffffffed10) -- paddr (0xc5d10) 

-- Tick (34300000) -- ISN: (94213) : L from (0x7fffffffed10) -- of Size = (4) -- vaddr (0x7fffffffed10) -- paddr (0xc5d10) 

-- Tick (34301500) -- ISN: (94216) : S -> 0x(38) at (0x7fffffffed10) -- Size = (4) -- vaddr (0x7fffffffed10) -- paddr (0xc5d10) 

-- Tick (34302000) -- ISN: (94212) : S -> 0x(5) at (0x6bc51c) -- Size = (4) -- vaddr (0x6bc51c) -- paddr (0xbc51c) 

-- Tick (34302000) -- ISN: (94217) : L from (0x7fffffffed10) -- of Size = (4) -- vaddr (0x7fffffffed10) -- paddr (0xc5d10) 

-- Tick (34302000) -- ISN: (94223) : L from (0x7fffffffed10) -- of Size = (4) -- vaddr (0x7fffffffed10) -- paddr (0xc5d10) 

-- Tick (34302000) -- ISN: (94230) : L from (0x7fffffffed10) -- of Size = (4) -- vaddr (0x7fffffffed10) -- paddr (0xc5d10) 

-- Tick (34303500) -- ISN: (94233) : S -> 0x(39) at (0x7fffffffed10) -- Size = (4) -- vaddr (0x7fffffffed10) -- paddr (0xc5d10) 

-- Tick (34304000) -- ISN: (94229) : S -> 0x(5) at (0x6bc520) -- Size = (4) -- vaddr (0x6bc520) -- paddr (0xbc520) 

-- Tick (34304000) -- ISN: (94234) : L from (0x7fffffffed10) -- of Size = (4) -- vaddr (0x7fffffffed10) -- paddr (0xc5d10) 

-- Tick (34304000) -- ISN: (94240) : L from (0x7fffffffed10) -- of Size = (4) -- vaddr (0x7fffffffed10) -- paddr (0xc5d10) 

-- Tick (34304000) -- ISN: (94247) : L from (0x7fffffffed10) -- of Size = (4) -- vaddr (0x7fffffffed10) -- paddr (0xc5d10) 

-- Tick (34305500) -- ISN: (94250) : S -> 0x(3a) at (0x7fffffffed10) -- Size = (4) -- vaddr (0x7fffffffed10) -- paddr (0xc5d10) 

-- Tick (34306000) -- ISN: (94246) : S -> 0x(5) at (0x6bc524) -- Size = (4) -- vaddr (0x6bc524) -- paddr (0xbc524) 

-- Tick (34306000) -- ISN: (94251) : L from (0x7fffffffed10) -- of Size = (4) -- vaddr (0x7fffffffed10) -- paddr (0xc5d10) 

-- Tick (34306000) -- ISN: (94257) : L from (0x7fffffffed10) -- of Size = (4) -- vaddr (0x7fffffffed10) -- paddr (0xc5d10) 

-- Tick (34306000) -- ISN: (94264) : L from (0x7fffffffed10) -- of Size = (4) -- vaddr (0x7fffffffed10) -- paddr (0xc5d10) 

-- Tick (34307500) -- ISN: (94267) : S -> 0x(3b) at (0x7fffffffed10) -- Size = (4) -- vaddr (0x7fffffffed10) -- paddr (0xc5d10) 

-- Tick (34308000) -- ISN: (94263) : S -> 0x(5) at (0x6bc528) -- Size = (4) -- vaddr (0x6bc528) -- paddr (0xbc528) 

-- Tick (34308000) -- ISN: (94268) : L from (0x7fffffffed10) -- of Size = (4) -- vaddr (0x7fffffffed10) -- paddr (0xc5d10) 

-- Tick (34308000) -- ISN: (94274) : L from (0x7fffffffed10) -- of Size = (4) -- vaddr (0x7fffffffed10) -- paddr (0xc5d10) 

-- Tick (34308000) -- ISN: (94281) : L from (0x7fffffffed10) -- of Size = (4) -- vaddr (0x7fffffffed10) -- paddr (0xc5d10) 

-- Tick (34309500) -- ISN: (94284) : S -> 0x(3c) at (0x7fffffffed10) -- Size = (4) -- vaddr (0x7fffffffed10) -- paddr (0xc5d10) 

-- Tick (34310000) -- ISN: (94280) : S -> 0x(5) at (0x6bc52c) -- Size = (4) -- vaddr (0x6bc52c) -- paddr (0xbc52c) 

-- Tick (34310000) -- ISN: (94285) : L from (0x7fffffffed10) -- of Size = (4) -- vaddr (0x7fffffffed10) -- paddr (0xc5d10) 

-- Tick (34310000) -- ISN: (94291) : L from (0x7fffffffed10) -- of Size = (4) -- vaddr (0x7fffffffed10) -- paddr (0xc5d10) 

-- Tick (34310000) -- ISN: (94298) : L from (0x7fffffffed10) -- of Size = (4) -- vaddr (0x7fffffffed10) -- paddr (0xc5d10) 

-- Tick (34311500) -- ISN: (94301) : S -> 0x(3d) at (0x7fffffffed10) -- Size = (4) -- vaddr (0x7fffffffed10) -- paddr (0xc5d10) 

-- Tick (34312000) -- ISN: (94297) : S -> 0x(5) at (0x6bc530) -- Size = (4) -- vaddr (0x6bc530) -- paddr (0xbc530) 

-- Tick (34312000) -- ISN: (94302) : L from (0x7fffffffed10) -- of Size = (4) -- vaddr (0x7fffffffed10) -- paddr (0xc5d10) 

-- Tick (34312000) -- ISN: (94308) : L from (0x7fffffffed10) -- of Size = (4) -- vaddr (0x7fffffffed10) -- paddr (0xc5d10) 

-- Tick (34312000) -- ISN: (94315) : L from (0x7fffffffed10) -- of Size = (4) -- vaddr (0x7fffffffed10) -- paddr (0xc5d10) 

-- Tick (34313500) -- ISN: (94318) : S -> 0x(3e) at (0x7fffffffed10) -- Size = (4) -- vaddr (0x7fffffffed10) -- paddr (0xc5d10) 

-- Tick (34314000) -- ISN: (94314) : S -> 0x(5) at (0x6bc534) -- Size = (4) -- vaddr (0x6bc534) -- paddr (0xbc534) 

-- Tick (34314000) -- ISN: (94319) : L from (0x7fffffffed10) -- of Size = (4) -- vaddr (0x7fffffffed10) -- paddr (0xc5d10) 

-- Tick (34314000) -- ISN: (94325) : L from (0x7fffffffed10) -- of Size = (4) -- vaddr (0x7fffffffed10) -- paddr (0xc5d10) 

-- Tick (34314000) -- ISN: (94332) : L from (0x7fffffffed10) -- of Size = (4) -- vaddr (0x7fffffffed10) -- paddr (0xc5d10) 

-- Tick (34315500) -- ISN: (94335) : S -> 0x(3f) at (0x7fffffffed10) -- Size = (4) -- vaddr (0x7fffffffed10) -- paddr (0xc5d10) 

-- Tick (34316000) -- ISN: (94331) : S -> 0x(5) at (0x6bc538) -- Size = (4) -- vaddr (0x6bc538) -- paddr (0xbc538) 

-- Tick (34316000) -- ISN: (94336) : L from (0x7fffffffed10) -- of Size = (4) -- vaddr (0x7fffffffed10) -- paddr (0xc5d10) 

-- Tick (34316000) -- ISN: (94342) : L from (0x7fffffffed10) -- of Size = (4) -- vaddr (0x7fffffffed10) -- paddr (0xc5d10) 

-- Tick (34316000) -- ISN: (94349) : L from (0x7fffffffed10) -- of Size = (4) -- vaddr (0x7fffffffed10) -- paddr (0xc5d10) 

-- Tick (34317500) -- ISN: (94352) : S -> 0x(40) at (0x7fffffffed10) -- Size = (4) -- vaddr (0x7fffffffed10) -- paddr (0xc5d10) 

-- Tick (34318000) -- ISN: (94348) : S -> 0x(5) at (0x6bc53c) -- Size = (4) -- vaddr (0x6bc53c) -- paddr (0xbc53c) 

-- Tick (34318000) -- ISN: (94353) : L from (0x7fffffffed10) -- of Size = (4) -- vaddr (0x7fffffffed10) -- paddr (0xc5d10) 

-- Tick (34318000) -- ISN: (94359) : L from (0x7fffffffed10) -- of Size = (4) -- vaddr (0x7fffffffed10) -- paddr (0xc5d10) 

-- Tick (34318000) -- ISN: (94366) : L from (0x7fffffffed10) -- of Size = (4) -- vaddr (0x7fffffffed10) -- paddr (0xc5d10) 

-- Tick (34320000) -- ISN: (94365) : S -> 0x(5) at (0x6bc540) -- Size = (4) -- vaddr (0x6bc540) -- paddr (0xbc540) 

-- Tick (34368000) -- ISN: (94369) : S -> 0x(41) at (0x7fffffffed10) -- Size = (4) -- vaddr (0x7fffffffed10) -- paddr (0xc5d10) 

-- Tick (34368500) -- ISN: (94370) : L from (0x7fffffffed10) -- of Size = (4) -- vaddr (0x7fffffffed10) -- paddr (0xc5d10) 

-- Tick (34368500) -- ISN: (94376) : L from (0x7fffffffed10) -- of Size = (4) -- vaddr (0x7fffffffed10) -- paddr (0xc5d10) 

-- Tick (34369500) -- ISN: (94383) : L from (0x7fffffffed10) -- of Size = (4) -- vaddr (0x7fffffffed10) -- paddr (0xc5d10) 

-- Tick (34370500) -- ISN: (94382) : S -> 0x(5) at (0x6bc544) -- Size = (4) -- vaddr (0x6bc544) -- paddr (0xbc544) 

-- Tick (34371000) -- ISN: (94386) : S -> 0x(42) at (0x7fffffffed10) -- Size = (4) -- vaddr (0x7fffffffed10) -- paddr (0xc5d10) 

-- Tick (34371500) -- ISN: (94387) : L from (0x7fffffffed10) -- of Size = (4) -- vaddr (0x7fffffffed10) -- paddr (0xc5d10) 

-- Tick (34371500) -- ISN: (94393) : L from (0x7fffffffed10) -- of Size = (4) -- vaddr (0x7fffffffed10) -- paddr (0xc5d10) 

-- Tick (34371500) -- ISN: (94400) : L from (0x7fffffffed10) -- of Size = (4) -- vaddr (0x7fffffffed10) -- paddr (0xc5d10) 

-- Tick (34373000) -- ISN: (94403) : S -> 0x(43) at (0x7fffffffed10) -- Size = (4) -- vaddr (0x7fffffffed10) -- paddr (0xc5d10) 

-- Tick (34373500) -- ISN: (94399) : S -> 0x(5) at (0x6bc548) -- Size = (4) -- vaddr (0x6bc548) -- paddr (0xbc548) 

-- Tick (34373500) -- ISN: (94404) : L from (0x7fffffffed10) -- of Size = (4) -- vaddr (0x7fffffffed10) -- paddr (0xc5d10) 

-- Tick (34373500) -- ISN: (94410) : L from (0x7fffffffed10) -- of Size = (4) -- vaddr (0x7fffffffed10) -- paddr (0xc5d10) 

-- Tick (34373500) -- ISN: (94417) : L from (0x7fffffffed10) -- of Size = (4) -- vaddr (0x7fffffffed10) -- paddr (0xc5d10) 

-- Tick (34375000) -- ISN: (94420) : S -> 0x(44) at (0x7fffffffed10) -- Size = (4) -- vaddr (0x7fffffffed10) -- paddr (0xc5d10) 

-- Tick (34375500) -- ISN: (94416) : S -> 0x(5) at (0x6bc54c) -- Size = (4) -- vaddr (0x6bc54c) -- paddr (0xbc54c) 

-- Tick (34375500) -- ISN: (94421) : L from (0x7fffffffed10) -- of Size = (4) -- vaddr (0x7fffffffed10) -- paddr (0xc5d10) 

-- Tick (34375500) -- ISN: (94427) : L from (0x7fffffffed10) -- of Size = (4) -- vaddr (0x7fffffffed10) -- paddr (0xc5d10) 

-- Tick (34375500) -- ISN: (94434) : L from (0x7fffffffed10) -- of Size = (4) -- vaddr (0x7fffffffed10) -- paddr (0xc5d10) 

-- Tick (34377000) -- ISN: (94437) : S -> 0x(45) at (0x7fffffffed10) -- Size = (4) -- vaddr (0x7fffffffed10) -- paddr (0xc5d10) 

-- Tick (34377500) -- ISN: (94433) : S -> 0x(5) at (0x6bc550) -- Size = (4) -- vaddr (0x6bc550) -- paddr (0xbc550) 

-- Tick (34377500) -- ISN: (94438) : L from (0x7fffffffed10) -- of Size = (4) -- vaddr (0x7fffffffed10) -- paddr (0xc5d10) 

-- Tick (34377500) -- ISN: (94444) : L from (0x7fffffffed10) -- of Size = (4) -- vaddr (0x7fffffffed10) -- paddr (0xc5d10) 

-- Tick (34377500) -- ISN: (94451) : L from (0x7fffffffed10) -- of Size = (4) -- vaddr (0x7fffffffed10) -- paddr (0xc5d10) 

-- Tick (34379000) -- ISN: (94454) : S -> 0x(46) at (0x7fffffffed10) -- Size = (4) -- vaddr (0x7fffffffed10) -- paddr (0xc5d10) 

-- Tick (34379500) -- ISN: (94450) : S -> 0x(5) at (0x6bc554) -- Size = (4) -- vaddr (0x6bc554) -- paddr (0xbc554) 

-- Tick (34379500) -- ISN: (94455) : L from (0x7fffffffed10) -- of Size = (4) -- vaddr (0x7fffffffed10) -- paddr (0xc5d10) 

-- Tick (34379500) -- ISN: (94461) : L from (0x7fffffffed10) -- of Size = (4) -- vaddr (0x7fffffffed10) -- paddr (0xc5d10) 

-- Tick (34380000) -- ISN: (94468) : L from (0x7fffffffed10) -- of Size = (4) -- vaddr (0x7fffffffed10) -- paddr (0xc5d10) 

-- Tick (34381500) -- ISN: (94467) : S -> 0x(5) at (0x6bc558) -- Size = (4) -- vaddr (0x6bc558) -- paddr (0xbc558) 

-- Tick (34381500) -- ISN: (94471) : S -> 0x(47) at (0x7fffffffed10) -- Size = (4) -- vaddr (0x7fffffffed10) -- paddr (0xc5d10) 

-- Tick (34382000) -- ISN: (94472) : L from (0x7fffffffed10) -- of Size = (4) -- vaddr (0x7fffffffed10) -- paddr (0xc5d10) 

-- Tick (34382000) -- ISN: (94478) : L from (0x7fffffffed10) -- of Size = (4) -- vaddr (0x7fffffffed10) -- paddr (0xc5d10) 

-- Tick (34382000) -- ISN: (94485) : L from (0x7fffffffed10) -- of Size = (4) -- vaddr (0x7fffffffed10) -- paddr (0xc5d10) 

-- Tick (34383500) -- ISN: (94488) : S -> 0x(48) at (0x7fffffffed10) -- Size = (4) -- vaddr (0x7fffffffed10) -- paddr (0xc5d10) 

-- Tick (34384000) -- ISN: (94484) : S -> 0x(5) at (0x6bc55c) -- Size = (4) -- vaddr (0x6bc55c) -- paddr (0xbc55c) 

-- Tick (34384000) -- ISN: (94489) : L from (0x7fffffffed10) -- of Size = (4) -- vaddr (0x7fffffffed10) -- paddr (0xc5d10) 

-- Tick (34384000) -- ISN: (94495) : L from (0x7fffffffed10) -- of Size = (4) -- vaddr (0x7fffffffed10) -- paddr (0xc5d10) 

-- Tick (34384000) -- ISN: (94502) : L from (0x7fffffffed10) -- of Size = (4) -- vaddr (0x7fffffffed10) -- paddr (0xc5d10) 

-- Tick (34385500) -- ISN: (94505) : S -> 0x(49) at (0x7fffffffed10) -- Size = (4) -- vaddr (0x7fffffffed10) -- paddr (0xc5d10) 

-- Tick (34386000) -- ISN: (94501) : S -> 0x(5) at (0x6bc560) -- Size = (4) -- vaddr (0x6bc560) -- paddr (0xbc560) 

-- Tick (34386000) -- ISN: (94506) : L from (0x7fffffffed10) -- of Size = (4) -- vaddr (0x7fffffffed10) -- paddr (0xc5d10) 

-- Tick (34386000) -- ISN: (94512) : L from (0x7fffffffed10) -- of Size = (4) -- vaddr (0x7fffffffed10) -- paddr (0xc5d10) 

-- Tick (34386000) -- ISN: (94519) : L from (0x7fffffffed10) -- of Size = (4) -- vaddr (0x7fffffffed10) -- paddr (0xc5d10) 

-- Tick (34387500) -- ISN: (94522) : S -> 0x(4a) at (0x7fffffffed10) -- Size = (4) -- vaddr (0x7fffffffed10) -- paddr (0xc5d10) 

-- Tick (34388000) -- ISN: (94518) : S -> 0x(5) at (0x6bc564) -- Size = (4) -- vaddr (0x6bc564) -- paddr (0xbc564) 

-- Tick (34388000) -- ISN: (94523) : L from (0x7fffffffed10) -- of Size = (4) -- vaddr (0x7fffffffed10) -- paddr (0xc5d10) 

-- Tick (34388000) -- ISN: (94529) : L from (0x7fffffffed10) -- of Size = (4) -- vaddr (0x7fffffffed10) -- paddr (0xc5d10) 

-- Tick (34388000) -- ISN: (94536) : L from (0x7fffffffed10) -- of Size = (4) -- vaddr (0x7fffffffed10) -- paddr (0xc5d10) 

-- Tick (34389500) -- ISN: (94539) : S -> 0x(4b) at (0x7fffffffed10) -- Size = (4) -- vaddr (0x7fffffffed10) -- paddr (0xc5d10) 

-- Tick (34390000) -- ISN: (94535) : S -> 0x(5) at (0x6bc568) -- Size = (4) -- vaddr (0x6bc568) -- paddr (0xbc568) 

-- Tick (34390000) -- ISN: (94540) : L from (0x7fffffffed10) -- of Size = (4) -- vaddr (0x7fffffffed10) -- paddr (0xc5d10) 

-- Tick (34390000) -- ISN: (94546) : L from (0x7fffffffed10) -- of Size = (4) -- vaddr (0x7fffffffed10) -- paddr (0xc5d10) 

-- Tick (34390000) -- ISN: (94553) : L from (0x7fffffffed10) -- of Size = (4) -- vaddr (0x7fffffffed10) -- paddr (0xc5d10) 

-- Tick (34391500) -- ISN: (94556) : S -> 0x(4c) at (0x7fffffffed10) -- Size = (4) -- vaddr (0x7fffffffed10) -- paddr (0xc5d10) 

-- Tick (34392000) -- ISN: (94552) : S -> 0x(5) at (0x6bc56c) -- Size = (4) -- vaddr (0x6bc56c) -- paddr (0xbc56c) 

-- Tick (34392000) -- ISN: (94557) : L from (0x7fffffffed10) -- of Size = (4) -- vaddr (0x7fffffffed10) -- paddr (0xc5d10) 

-- Tick (34392000) -- ISN: (94563) : L from (0x7fffffffed10) -- of Size = (4) -- vaddr (0x7fffffffed10) -- paddr (0xc5d10) 

-- Tick (34392000) -- ISN: (94570) : L from (0x7fffffffed10) -- of Size = (4) -- vaddr (0x7fffffffed10) -- paddr (0xc5d10) 

-- Tick (34393500) -- ISN: (94573) : S -> 0x(4d) at (0x7fffffffed10) -- Size = (4) -- vaddr (0x7fffffffed10) -- paddr (0xc5d10) 

-- Tick (34394000) -- ISN: (94569) : S -> 0x(5) at (0x6bc570) -- Size = (4) -- vaddr (0x6bc570) -- paddr (0xbc570) 

-- Tick (34394000) -- ISN: (94574) : L from (0x7fffffffed10) -- of Size = (4) -- vaddr (0x7fffffffed10) -- paddr (0xc5d10) 

-- Tick (34394000) -- ISN: (94580) : L from (0x7fffffffed10) -- of Size = (4) -- vaddr (0x7fffffffed10) -- paddr (0xc5d10) 

-- Tick (34394000) -- ISN: (94587) : L from (0x7fffffffed10) -- of Size = (4) -- vaddr (0x7fffffffed10) -- paddr (0xc5d10) 

-- Tick (34395500) -- ISN: (94590) : S -> 0x(4e) at (0x7fffffffed10) -- Size = (4) -- vaddr (0x7fffffffed10) -- paddr (0xc5d10) 

-- Tick (34396000) -- ISN: (94586) : S -> 0x(5) at (0x6bc574) -- Size = (4) -- vaddr (0x6bc574) -- paddr (0xbc574) 

-- Tick (34396000) -- ISN: (94591) : L from (0x7fffffffed10) -- of Size = (4) -- vaddr (0x7fffffffed10) -- paddr (0xc5d10) 

-- Tick (34396000) -- ISN: (94597) : L from (0x7fffffffed10) -- of Size = (4) -- vaddr (0x7fffffffed10) -- paddr (0xc5d10) 

-- Tick (34396000) -- ISN: (94604) : L from (0x7fffffffed10) -- of Size = (4) -- vaddr (0x7fffffffed10) -- paddr (0xc5d10) 

-- Tick (34397500) -- ISN: (94607) : S -> 0x(4f) at (0x7fffffffed10) -- Size = (4) -- vaddr (0x7fffffffed10) -- paddr (0xc5d10) 

-- Tick (34398000) -- ISN: (94603) : S -> 0x(5) at (0x6bc578) -- Size = (4) -- vaddr (0x6bc578) -- paddr (0xbc578) 

-- Tick (34398000) -- ISN: (94608) : L from (0x7fffffffed10) -- of Size = (4) -- vaddr (0x7fffffffed10) -- paddr (0xc5d10) 

-- Tick (34398000) -- ISN: (94614) : L from (0x7fffffffed10) -- of Size = (4) -- vaddr (0x7fffffffed10) -- paddr (0xc5d10) 

-- Tick (34398000) -- ISN: (94621) : L from (0x7fffffffed10) -- of Size = (4) -- vaddr (0x7fffffffed10) -- paddr (0xc5d10) 

-- Tick (34399500) -- ISN: (94624) : S -> 0x(50) at (0x7fffffffed10) -- Size = (4) -- vaddr (0x7fffffffed10) -- paddr (0xc5d10) 

-- Tick (34400000) -- ISN: (94620) : S -> 0x(5) at (0x6bc57c) -- Size = (4) -- vaddr (0x6bc57c) -- paddr (0xbc57c) 

-- Tick (34400000) -- ISN: (94625) : L from (0x7fffffffed10) -- of Size = (4) -- vaddr (0x7fffffffed10) -- paddr (0xc5d10) 

-- Tick (34400000) -- ISN: (94631) : L from (0x7fffffffed10) -- of Size = (4) -- vaddr (0x7fffffffed10) -- paddr (0xc5d10) 

-- Tick (34400000) -- ISN: (94638) : L from (0x7fffffffed10) -- of Size = (4) -- vaddr (0x7fffffffed10) -- paddr (0xc5d10) 

-- Tick (34402000) -- ISN: (94637) : S -> 0x(5) at (0x6bc580) -- Size = (4) -- vaddr (0x6bc580) -- paddr (0xbc580) 

-- Tick (34450000) -- ISN: (94641) : S -> 0x(51) at (0x7fffffffed10) -- Size = (4) -- vaddr (0x7fffffffed10) -- paddr (0xc5d10) 

-- Tick (34450500) -- ISN: (94642) : L from (0x7fffffffed10) -- of Size = (4) -- vaddr (0x7fffffffed10) -- paddr (0xc5d10) 

-- Tick (34450500) -- ISN: (94648) : L from (0x7fffffffed10) -- of Size = (4) -- vaddr (0x7fffffffed10) -- paddr (0xc5d10) 

-- Tick (34451500) -- ISN: (94655) : L from (0x7fffffffed10) -- of Size = (4) -- vaddr (0x7fffffffed10) -- paddr (0xc5d10) 

-- Tick (34452500) -- ISN: (94654) : S -> 0x(5) at (0x6bc584) -- Size = (4) -- vaddr (0x6bc584) -- paddr (0xbc584) 

-- Tick (34453000) -- ISN: (94658) : S -> 0x(52) at (0x7fffffffed10) -- Size = (4) -- vaddr (0x7fffffffed10) -- paddr (0xc5d10) 

-- Tick (34453500) -- ISN: (94659) : L from (0x7fffffffed10) -- of Size = (4) -- vaddr (0x7fffffffed10) -- paddr (0xc5d10) 

-- Tick (34453500) -- ISN: (94665) : L from (0x7fffffffed10) -- of Size = (4) -- vaddr (0x7fffffffed10) -- paddr (0xc5d10) 

-- Tick (34453500) -- ISN: (94672) : L from (0x7fffffffed10) -- of Size = (4) -- vaddr (0x7fffffffed10) -- paddr (0xc5d10) 

-- Tick (34455000) -- ISN: (94675) : S -> 0x(53) at (0x7fffffffed10) -- Size = (4) -- vaddr (0x7fffffffed10) -- paddr (0xc5d10) 

-- Tick (34455500) -- ISN: (94671) : S -> 0x(5) at (0x6bc588) -- Size = (4) -- vaddr (0x6bc588) -- paddr (0xbc588) 

-- Tick (34455500) -- ISN: (94676) : L from (0x7fffffffed10) -- of Size = (4) -- vaddr (0x7fffffffed10) -- paddr (0xc5d10) 

-- Tick (34455500) -- ISN: (94682) : L from (0x7fffffffed10) -- of Size = (4) -- vaddr (0x7fffffffed10) -- paddr (0xc5d10) 

-- Tick (34455500) -- ISN: (94689) : L from (0x7fffffffed10) -- of Size = (4) -- vaddr (0x7fffffffed10) -- paddr (0xc5d10) 

-- Tick (34457000) -- ISN: (94692) : S -> 0x(54) at (0x7fffffffed10) -- Size = (4) -- vaddr (0x7fffffffed10) -- paddr (0xc5d10) 

-- Tick (34457500) -- ISN: (94688) : S -> 0x(5) at (0x6bc58c) -- Size = (4) -- vaddr (0x6bc58c) -- paddr (0xbc58c) 

-- Tick (34457500) -- ISN: (94693) : L from (0x7fffffffed10) -- of Size = (4) -- vaddr (0x7fffffffed10) -- paddr (0xc5d10) 

-- Tick (34457500) -- ISN: (94699) : L from (0x7fffffffed10) -- of Size = (4) -- vaddr (0x7fffffffed10) -- paddr (0xc5d10) 

-- Tick (34457500) -- ISN: (94706) : L from (0x7fffffffed10) -- of Size = (4) -- vaddr (0x7fffffffed10) -- paddr (0xc5d10) 

-- Tick (34459000) -- ISN: (94709) : S -> 0x(55) at (0x7fffffffed10) -- Size = (4) -- vaddr (0x7fffffffed10) -- paddr (0xc5d10) 

-- Tick (34459500) -- ISN: (94705) : S -> 0x(5) at (0x6bc590) -- Size = (4) -- vaddr (0x6bc590) -- paddr (0xbc590) 

-- Tick (34459500) -- ISN: (94710) : L from (0x7fffffffed10) -- of Size = (4) -- vaddr (0x7fffffffed10) -- paddr (0xc5d10) 

-- Tick (34459500) -- ISN: (94716) : L from (0x7fffffffed10) -- of Size = (4) -- vaddr (0x7fffffffed10) -- paddr (0xc5d10) 

-- Tick (34459500) -- ISN: (94723) : L from (0x7fffffffed10) -- of Size = (4) -- vaddr (0x7fffffffed10) -- paddr (0xc5d10) 

-- Tick (34461000) -- ISN: (94726) : S -> 0x(56) at (0x7fffffffed10) -- Size = (4) -- vaddr (0x7fffffffed10) -- paddr (0xc5d10) 

-- Tick (34461500) -- ISN: (94722) : S -> 0x(5) at (0x6bc594) -- Size = (4) -- vaddr (0x6bc594) -- paddr (0xbc594) 

-- Tick (34461500) -- ISN: (94727) : L from (0x7fffffffed10) -- of Size = (4) -- vaddr (0x7fffffffed10) -- paddr (0xc5d10) 

-- Tick (34461500) -- ISN: (94733) : L from (0x7fffffffed10) -- of Size = (4) -- vaddr (0x7fffffffed10) -- paddr (0xc5d10) 

-- Tick (34462000) -- ISN: (94740) : L from (0x7fffffffed10) -- of Size = (4) -- vaddr (0x7fffffffed10) -- paddr (0xc5d10) 

-- Tick (34463500) -- ISN: (94739) : S -> 0x(5) at (0x6bc598) -- Size = (4) -- vaddr (0x6bc598) -- paddr (0xbc598) 

-- Tick (34463500) -- ISN: (94743) : S -> 0x(57) at (0x7fffffffed10) -- Size = (4) -- vaddr (0x7fffffffed10) -- paddr (0xc5d10) 

-- Tick (34464000) -- ISN: (94744) : L from (0x7fffffffed10) -- of Size = (4) -- vaddr (0x7fffffffed10) -- paddr (0xc5d10) 

-- Tick (34464000) -- ISN: (94750) : L from (0x7fffffffed10) -- of Size = (4) -- vaddr (0x7fffffffed10) -- paddr (0xc5d10) 

-- Tick (34464000) -- ISN: (94757) : L from (0x7fffffffed10) -- of Size = (4) -- vaddr (0x7fffffffed10) -- paddr (0xc5d10) 

-- Tick (34465500) -- ISN: (94760) : S -> 0x(58) at (0x7fffffffed10) -- Size = (4) -- vaddr (0x7fffffffed10) -- paddr (0xc5d10) 

-- Tick (34466000) -- ISN: (94756) : S -> 0x(5) at (0x6bc59c) -- Size = (4) -- vaddr (0x6bc59c) -- paddr (0xbc59c) 

-- Tick (34466000) -- ISN: (94761) : L from (0x7fffffffed10) -- of Size = (4) -- vaddr (0x7fffffffed10) -- paddr (0xc5d10) 

-- Tick (34466000) -- ISN: (94767) : L from (0x7fffffffed10) -- of Size = (4) -- vaddr (0x7fffffffed10) -- paddr (0xc5d10) 

-- Tick (34466000) -- ISN: (94774) : L from (0x7fffffffed10) -- of Size = (4) -- vaddr (0x7fffffffed10) -- paddr (0xc5d10) 

-- Tick (34467500) -- ISN: (94777) : S -> 0x(59) at (0x7fffffffed10) -- Size = (4) -- vaddr (0x7fffffffed10) -- paddr (0xc5d10) 

-- Tick (34468000) -- ISN: (94773) : S -> 0x(5) at (0x6bc5a0) -- Size = (4) -- vaddr (0x6bc5a0) -- paddr (0xbc5a0) 

-- Tick (34468000) -- ISN: (94778) : L from (0x7fffffffed10) -- of Size = (4) -- vaddr (0x7fffffffed10) -- paddr (0xc5d10) 

-- Tick (34468000) -- ISN: (94784) : L from (0x7fffffffed10) -- of Size = (4) -- vaddr (0x7fffffffed10) -- paddr (0xc5d10) 

-- Tick (34468000) -- ISN: (94791) : L from (0x7fffffffed10) -- of Size = (4) -- vaddr (0x7fffffffed10) -- paddr (0xc5d10) 

-- Tick (34469500) -- ISN: (94794) : S -> 0x(5a) at (0x7fffffffed10) -- Size = (4) -- vaddr (0x7fffffffed10) -- paddr (0xc5d10) 

-- Tick (34470000) -- ISN: (94790) : S -> 0x(5) at (0x6bc5a4) -- Size = (4) -- vaddr (0x6bc5a4) -- paddr (0xbc5a4) 

-- Tick (34470000) -- ISN: (94795) : L from (0x7fffffffed10) -- of Size = (4) -- vaddr (0x7fffffffed10) -- paddr (0xc5d10) 

-- Tick (34470000) -- ISN: (94801) : L from (0x7fffffffed10) -- of Size = (4) -- vaddr (0x7fffffffed10) -- paddr (0xc5d10) 

-- Tick (34470000) -- ISN: (94808) : L from (0x7fffffffed10) -- of Size = (4) -- vaddr (0x7fffffffed10) -- paddr (0xc5d10) 

-- Tick (34471500) -- ISN: (94811) : S -> 0x(5b) at (0x7fffffffed10) -- Size = (4) -- vaddr (0x7fffffffed10) -- paddr (0xc5d10) 

-- Tick (34472000) -- ISN: (94807) : S -> 0x(5) at (0x6bc5a8) -- Size = (4) -- vaddr (0x6bc5a8) -- paddr (0xbc5a8) 

-- Tick (34472000) -- ISN: (94812) : L from (0x7fffffffed10) -- of Size = (4) -- vaddr (0x7fffffffed10) -- paddr (0xc5d10) 

-- Tick (34472000) -- ISN: (94818) : L from (0x7fffffffed10) -- of Size = (4) -- vaddr (0x7fffffffed10) -- paddr (0xc5d10) 

-- Tick (34472000) -- ISN: (94825) : L from (0x7fffffffed10) -- of Size = (4) -- vaddr (0x7fffffffed10) -- paddr (0xc5d10) 

-- Tick (34473500) -- ISN: (94828) : S -> 0x(5c) at (0x7fffffffed10) -- Size = (4) -- vaddr (0x7fffffffed10) -- paddr (0xc5d10) 

-- Tick (34474000) -- ISN: (94824) : S -> 0x(5) at (0x6bc5ac) -- Size = (4) -- vaddr (0x6bc5ac) -- paddr (0xbc5ac) 

-- Tick (34474000) -- ISN: (94829) : L from (0x7fffffffed10) -- of Size = (4) -- vaddr (0x7fffffffed10) -- paddr (0xc5d10) 

-- Tick (34474000) -- ISN: (94835) : L from (0x7fffffffed10) -- of Size = (4) -- vaddr (0x7fffffffed10) -- paddr (0xc5d10) 

-- Tick (34474000) -- ISN: (94842) : L from (0x7fffffffed10) -- of Size = (4) -- vaddr (0x7fffffffed10) -- paddr (0xc5d10) 

-- Tick (34475500) -- ISN: (94845) : S -> 0x(5d) at (0x7fffffffed10) -- Size = (4) -- vaddr (0x7fffffffed10) -- paddr (0xc5d10) 

-- Tick (34476000) -- ISN: (94841) : S -> 0x(5) at (0x6bc5b0) -- Size = (4) -- vaddr (0x6bc5b0) -- paddr (0xbc5b0) 

-- Tick (34476000) -- ISN: (94846) : L from (0x7fffffffed10) -- of Size = (4) -- vaddr (0x7fffffffed10) -- paddr (0xc5d10) 

-- Tick (34476000) -- ISN: (94852) : L from (0x7fffffffed10) -- of Size = (4) -- vaddr (0x7fffffffed10) -- paddr (0xc5d10) 

-- Tick (34476000) -- ISN: (94859) : L from (0x7fffffffed10) -- of Size = (4) -- vaddr (0x7fffffffed10) -- paddr (0xc5d10) 

-- Tick (34477500) -- ISN: (94862) : S -> 0x(5e) at (0x7fffffffed10) -- Size = (4) -- vaddr (0x7fffffffed10) -- paddr (0xc5d10) 

-- Tick (34478000) -- ISN: (94858) : S -> 0x(5) at (0x6bc5b4) -- Size = (4) -- vaddr (0x6bc5b4) -- paddr (0xbc5b4) 

-- Tick (34478000) -- ISN: (94863) : L from (0x7fffffffed10) -- of Size = (4) -- vaddr (0x7fffffffed10) -- paddr (0xc5d10) 

-- Tick (34478000) -- ISN: (94869) : L from (0x7fffffffed10) -- of Size = (4) -- vaddr (0x7fffffffed10) -- paddr (0xc5d10) 

-- Tick (34478000) -- ISN: (94876) : L from (0x7fffffffed10) -- of Size = (4) -- vaddr (0x7fffffffed10) -- paddr (0xc5d10) 

-- Tick (34479500) -- ISN: (94879) : S -> 0x(5f) at (0x7fffffffed10) -- Size = (4) -- vaddr (0x7fffffffed10) -- paddr (0xc5d10) 

-- Tick (34480000) -- ISN: (94875) : S -> 0x(5) at (0x6bc5b8) -- Size = (4) -- vaddr (0x6bc5b8) -- paddr (0xbc5b8) 

-- Tick (34480000) -- ISN: (94880) : L from (0x7fffffffed10) -- of Size = (4) -- vaddr (0x7fffffffed10) -- paddr (0xc5d10) 

-- Tick (34480000) -- ISN: (94886) : L from (0x7fffffffed10) -- of Size = (4) -- vaddr (0x7fffffffed10) -- paddr (0xc5d10) 

-- Tick (34480000) -- ISN: (94893) : L from (0x7fffffffed10) -- of Size = (4) -- vaddr (0x7fffffffed10) -- paddr (0xc5d10) 

-- Tick (34481500) -- ISN: (94896) : S -> 0x(60) at (0x7fffffffed10) -- Size = (4) -- vaddr (0x7fffffffed10) -- paddr (0xc5d10) 

-- Tick (34482000) -- ISN: (94892) : S -> 0x(5) at (0x6bc5bc) -- Size = (4) -- vaddr (0x6bc5bc) -- paddr (0xbc5bc) 

-- Tick (34482000) -- ISN: (94897) : L from (0x7fffffffed10) -- of Size = (4) -- vaddr (0x7fffffffed10) -- paddr (0xc5d10) 

-- Tick (34482000) -- ISN: (94903) : L from (0x7fffffffed10) -- of Size = (4) -- vaddr (0x7fffffffed10) -- paddr (0xc5d10) 

-- Tick (34482000) -- ISN: (94910) : L from (0x7fffffffed10) -- of Size = (4) -- vaddr (0x7fffffffed10) -- paddr (0xc5d10) 

-- Tick (34484000) -- ISN: (94909) : S -> 0x(5) at (0x6bc5c0) -- Size = (4) -- vaddr (0x6bc5c0) -- paddr (0xbc5c0) 

-- Tick (34532000) -- ISN: (94913) : S -> 0x(61) at (0x7fffffffed10) -- Size = (4) -- vaddr (0x7fffffffed10) -- paddr (0xc5d10) 

-- Tick (34532500) -- ISN: (94914) : L from (0x7fffffffed10) -- of Size = (4) -- vaddr (0x7fffffffed10) -- paddr (0xc5d10) 

-- Tick (34532500) -- ISN: (94920) : L from (0x7fffffffed10) -- of Size = (4) -- vaddr (0x7fffffffed10) -- paddr (0xc5d10) 

-- Tick (34533500) -- ISN: (94927) : L from (0x7fffffffed10) -- of Size = (4) -- vaddr (0x7fffffffed10) -- paddr (0xc5d10) 

-- Tick (34534500) -- ISN: (94926) : S -> 0x(5) at (0x6bc5c4) -- Size = (4) -- vaddr (0x6bc5c4) -- paddr (0xbc5c4) 

-- Tick (34535000) -- ISN: (94930) : S -> 0x(62) at (0x7fffffffed10) -- Size = (4) -- vaddr (0x7fffffffed10) -- paddr (0xc5d10) 

-- Tick (34535500) -- ISN: (94931) : L from (0x7fffffffed10) -- of Size = (4) -- vaddr (0x7fffffffed10) -- paddr (0xc5d10) 

-- Tick (34535500) -- ISN: (94937) : L from (0x7fffffffed10) -- of Size = (4) -- vaddr (0x7fffffffed10) -- paddr (0xc5d10) 

-- Tick (34535500) -- ISN: (94944) : L from (0x7fffffffed10) -- of Size = (4) -- vaddr (0x7fffffffed10) -- paddr (0xc5d10) 

-- Tick (34537000) -- ISN: (94947) : S -> 0x(63) at (0x7fffffffed10) -- Size = (4) -- vaddr (0x7fffffffed10) -- paddr (0xc5d10) 

-- Tick (34537500) -- ISN: (94943) : S -> 0x(5) at (0x6bc5c8) -- Size = (4) -- vaddr (0x6bc5c8) -- paddr (0xbc5c8) 

-- Tick (34537500) -- ISN: (94948) : L from (0x7fffffffed10) -- of Size = (4) -- vaddr (0x7fffffffed10) -- paddr (0xc5d10) 

-- Tick (34537500) -- ISN: (94954) : L from (0x7fffffffed10) -- of Size = (4) -- vaddr (0x7fffffffed10) -- paddr (0xc5d10) 

-- Tick (34537500) -- ISN: (94961) : L from (0x7fffffffed10) -- of Size = (4) -- vaddr (0x7fffffffed10) -- paddr (0xc5d10) 

-- Tick (34539000) -- ISN: (94964) : S -> 0x(64) at (0x7fffffffed10) -- Size = (4) -- vaddr (0x7fffffffed10) -- paddr (0xc5d10) 

-- Tick (34539500) -- ISN: (94960) : S -> 0x(5) at (0x6bc5cc) -- Size = (4) -- vaddr (0x6bc5cc) -- paddr (0xbc5cc) 

-- Tick (34539500) -- ISN: (94965) : L from (0x7fffffffed10) -- of Size = (4) -- vaddr (0x7fffffffed10) -- paddr (0xc5d10) 

-- Tick (34539500) -- ISN: (94971) : L from (0x7fffffffed10) -- of Size = (4) -- vaddr (0x7fffffffed10) -- paddr (0xc5d10) 

-- Tick (34539500) -- ISN: (94978) : L from (0x7fffffffed10) -- of Size = (4) -- vaddr (0x7fffffffed10) -- paddr (0xc5d10) 

-- Tick (34541000) -- ISN: (94981) : S -> 0x(65) at (0x7fffffffed10) -- Size = (4) -- vaddr (0x7fffffffed10) -- paddr (0xc5d10) 

-- Tick (34541500) -- ISN: (94977) : S -> 0x(5) at (0x6bc5d0) -- Size = (4) -- vaddr (0x6bc5d0) -- paddr (0xbc5d0) 

-- Tick (34541500) -- ISN: (94982) : L from (0x7fffffffed10) -- of Size = (4) -- vaddr (0x7fffffffed10) -- paddr (0xc5d10) 

-- Tick (34541500) -- ISN: (94988) : L from (0x7fffffffed10) -- of Size = (4) -- vaddr (0x7fffffffed10) -- paddr (0xc5d10) 

-- Tick (34541500) -- ISN: (94995) : L from (0x7fffffffed10) -- of Size = (4) -- vaddr (0x7fffffffed10) -- paddr (0xc5d10) 

-- Sqsh -> ISN (94970)

-- Tick (34547000) -- ISN: (95053) : S -> 0x(0) at (0x7fffffffed14) -- Size = (4) -- vaddr (0x7fffffffed14) -- paddr (0xc5d14) 

-- Tick (34547500) -- ISN: (95057) : L from (0x7fffffffed14) -- of Size = (4) -- vaddr (0x7fffffffed14) -- paddr (0xc5d14) 

-- Sqsh -> ISN (95056)

-- Tick (34552000) -- ISN: (95109) : L from (0x7fffffffed14) -- of Size = (4) -- vaddr (0x7fffffffed14) -- paddr (0xc5d14) 

-- Tick (34553000) -- ISN: (95118) : S -> 0x(1b) at (0x7fffffffed08) -- Size = (8) -- vaddr (0x7fffffffed08) -- paddr (0xc5d08) 

-- Tick (34553000) -- ISN: (95124) : S -> 0x(25) at (0x7fffffffed00) -- Size = (8) -- vaddr (0x7fffffffed00) -- paddr (0xc5d00) 

-- Tick (34553500) -- ISN: (95128) : S -> 0x(0) at (0x7fffffffed10) -- Size = (4) -- vaddr (0x7fffffffed10) -- paddr (0xc5d10) 

-- Tick (34553500) -- ISN: (95132) : L from (0x7fffffffed10) -- of Size = (4) -- vaddr (0x7fffffffed10) -- paddr (0xc5d10) 

-- Tick (34553500) -- ISN: (95136) : L from (0x7fffffffed10) -- of Size = (4) -- vaddr (0x7fffffffed10) -- paddr (0xc5d10) 

-- Sqsh -> ISN (95120)

-- Sqsh -> ISN (95114)

-- Tick (34559500) -- ISN: (95166) : L from (0x7fffffffed14) -- of Size = (4) -- vaddr (0x7fffffffed14) -- paddr (0xc5d14) 

-- Tick (34560000) -- ISN: (95170) : S -> 0x(0) at (0x7fffffffed08) -- Size = (8) -- vaddr (0x7fffffffed08) -- paddr (0xc5d08) 

-- Tick (34560500) -- ISN: (95173) : L from (0x7fffffffed14) -- of Size = (4) -- vaddr (0x7fffffffed14) -- paddr (0xc5d14) 

-- Tick (34560500) -- ISN: (95177) : L from (0x7fffffffed14) -- of Size = (4) -- vaddr (0x7fffffffed14) -- paddr (0xc5d14) 

-- Sqsh -> ISN (95172)

-- Tick (34565000) -- ISN: (95226) : S -> 0x(20) at (0x7fffffffed00) -- Size = (8) -- vaddr (0x7fffffffed00) -- paddr (0xc5d00) 

-- Tick (34565500) -- ISN: (95231) : L from (0x6b90f0) -- of Size = (4) -- vaddr (0x6b90f0) -- paddr (0xb90f0) 

-- Tick (34566000) -- ISN: (95229) : S -> 0x(0) at (0x7fffffffecfc) -- Size = (4) -- vaddr (0x7fffffffecfc) -- paddr (0xc5cfc) 

-- Tick (34566000) -- ISN: (95232) : L from (0x7fffffffecfc) -- of Size = (4) -- vaddr (0x7fffffffecfc) -- paddr (0xc5cfc) 

-- Tick (34566000) -- ISN: (95237) : L from (0x7fffffffecfc) -- of Size = (4) -- vaddr (0x7fffffffecfc) -- paddr (0xc5cfc) 

-- Tick (34567500) -- ISN: (95254) : L from (0x7fffffffed00) -- of Size = (8) -- vaddr (0x7fffffffed00) -- paddr (0xc5d00) 

-- Tick (34568000) -- ISN: (95242) : L from (0x6bc440) -- of Size = (4) -- vaddr (0x6bc440) -- paddr (0xbc440) 

-- Tick (34568000) -- ISN: (95257) : L from (0x7fffffffed08) -- of Size = (8) -- vaddr (0x7fffffffed08) -- paddr (0xc5d08) 

-- Tick (34569000) -- ISN: (95260) : L from (0x7fffffffed14) -- of Size = (4) -- vaddr (0x7fffffffed14) -- paddr (0xc5d14) 

-- Tick (34569000) -- ISN: (95264) : L from (0x7fffffffed14) -- of Size = (4) -- vaddr (0x7fffffffed14) -- paddr (0xc5d14) 

-- Tick (34569500) -- ISN: (95273) : S -> 0x(1b) at (0x7fffffffed08) -- Size = (8) -- vaddr (0x7fffffffed08) -- paddr (0xc5d08) 

-- Tick (34570000) -- ISN: (95279) : S -> 0x(25) at (0x7fffffffed00) -- Size = (8) -- vaddr (0x7fffffffed00) -- paddr (0xc5d00) 

-- Tick (34570000) -- ISN: (95287) : L from (0x7fffffffed10) -- of Size = (4) -- vaddr (0x7fffffffed10) -- paddr (0xc5d10) 

-- Sqsh -> ISN (95275)

-- Tick (34570500) -- ISN: (95247) : L from (0x6bc410) -- of Size = (1) -- vaddr (0x6bc410) -- paddr (0xbc410) 

-- Tick (34570500) -- ISN: (95263) : S -> 0x(1) at (0x7fffffffed14) -- Size = (4) -- vaddr (0x7fffffffed14) -- paddr (0xc5d14) 

-- Sqsh -> ISN (95263)

-- Tick (34577000) -- ISN: (95321) : L from (0x7fffffffed14) -- of Size = (4) -- vaddr (0x7fffffffed14) -- paddr (0xc5d14) 

-- Tick (34578500) -- ISN: (95330) : S -> 0x(1b) at (0x7fffffffed08) -- Size = (8) -- vaddr (0x7fffffffed08) -- paddr (0xc5d08) 

-- Tick (34578500) -- ISN: (95333) : S -> 0x(20) at (0x7fffffffed00) -- Size = (8) -- vaddr (0x7fffffffed00) -- paddr (0xc5d00) 

-- Sqsh -> ISN (95326)

-- Tick (34585000) -- ISN: (95382) : L from (0x7fffffffed14) -- of Size = (4) -- vaddr (0x7fffffffed14) -- paddr (0xc5d14) 

-- Tick (34585500) -- ISN: (95386) : S -> 0x(0) at (0x7fffffffed08) -- Size = (8) -- vaddr (0x7fffffffed08) -- paddr (0xc5d08) 

-- Tick (34586000) -- ISN: (95389) : L from (0x7fffffffed14) -- of Size = (4) -- vaddr (0x7fffffffed14) -- paddr (0xc5d14) 

-- Sqsh -> ISN (95388)

-- Tick (34590500) -- ISN: (95450) : S -> 0x(20) at (0x7fffffffed00) -- Size = (8) -- vaddr (0x7fffffffed00) -- paddr (0xc5d00) 

-- Tick (34591000) -- ISN: (95455) : L from (0x6b90f0) -- of Size = (4) -- vaddr (0x6b90f0) -- paddr (0xb90f0) 

-- Tick (34591500) -- ISN: (95453) : S -> 0x(1) at (0x7fffffffecfc) -- Size = (4) -- vaddr (0x7fffffffecfc) -- paddr (0xc5cfc) 

-- Tick (34591500) -- ISN: (95456) : L from (0x7fffffffecfc) -- of Size = (4) -- vaddr (0x7fffffffecfc) -- paddr (0xc5cfc) 

-- Tick (34591500) -- ISN: (95461) : L from (0x7fffffffecfc) -- of Size = (4) -- vaddr (0x7fffffffecfc) -- paddr (0xc5cfc) 

-- Tick (34593000) -- ISN: (95478) : L from (0x7fffffffed00) -- of Size = (8) -- vaddr (0x7fffffffed00) -- paddr (0xc5d00) 

-- Tick (34593500) -- ISN: (95466) : L from (0x6bc444) -- of Size = (4) -- vaddr (0x6bc444) -- paddr (0xbc444) 

-- Tick (34593500) -- ISN: (95481) : L from (0x7fffffffed08) -- of Size = (8) -- vaddr (0x7fffffffed08) -- paddr (0xc5d08) 

-- Tick (34594500) -- ISN: (95484) : L from (0x7fffffffed14) -- of Size = (4) -- vaddr (0x7fffffffed14) -- paddr (0xc5d14) 

-- Tick (34595000) -- ISN: (95497) : S -> 0x(1b) at (0x7fffffffed08) -- Size = (8) -- vaddr (0x7fffffffed08) -- paddr (0xc5d08) 

-- Tick (34595500) -- ISN: (95503) : S -> 0x(25) at (0x7fffffffed00) -- Size = (8) -- vaddr (0x7fffffffed00) -- paddr (0xc5d00) 

-- Tick (34595500) -- ISN: (95511) : L from (0x7fffffffed10) -- of Size = (4) -- vaddr (0x7fffffffed10) -- paddr (0xc5d10) 

-- Sqsh -> ISN (95499)

-- Tick (34596000) -- ISN: (95471) : L from (0x6bc410) -- of Size = (1) -- vaddr (0x6bc410) -- paddr (0xbc410) 

-- Tick (34596000) -- ISN: (95487) : S -> 0x(2) at (0x7fffffffed14) -- Size = (4) -- vaddr (0x7fffffffed14) -- paddr (0xc5d14) 

-- Tick (34596500) -- ISN: (95488) : L from (0x7fffffffed14) -- of Size = (4) -- vaddr (0x7fffffffed14) -- paddr (0xc5d14) 

-- Sqsh -> ISN (95493)

-- Tick (34604000) -- ISN: (95561) : L from (0x7fffffffed14) -- of Size = (4) -- vaddr (0x7fffffffed14) -- paddr (0xc5d14) 

-- Tick (34604500) -- ISN: (95565) : S -> 0x(0) at (0x7fffffffed08) -- Size = (8) -- vaddr (0x7fffffffed08) -- paddr (0xc5d08) 

-- Sqsh -> ISN (95567)

-- Tick (34624000) -- ISN: (95252) : S -> 0x(0) at (0x6bc428) -- Size = (4) -- vaddr (0x6bc428) -- paddr (0xbc428) 

-- Tick (34624500) -- ISN: (95476) : S -> 0x(0) at (0x6bc428) -- Size = (4) -- vaddr (0x6bc428) -- paddr (0xbc428) 

-- Tick (34627000) -- ISN: (95621) : S -> 0x(20) at (0x7fffffffed00) -- Size = (8) -- vaddr (0x7fffffffed00) -- paddr (0xc5d00) 

-- Tick (34627500) -- ISN: (95626) : L from (0x6b90f0) -- of Size = (4) -- vaddr (0x6b90f0) -- paddr (0xb90f0) 

-- Tick (34628000) -- ISN: (95624) : S -> 0x(2) at (0x7fffffffecfc) -- Size = (4) -- vaddr (0x7fffffffecfc) -- paddr (0xc5cfc) 

-- Tick (34628000) -- ISN: (95627) : L from (0x7fffffffecfc) -- of Size = (4) -- vaddr (0x7fffffffecfc) -- paddr (0xc5cfc) 

-- Tick (34628000) -- ISN: (95632) : L from (0x7fffffffecfc) -- of Size = (4) -- vaddr (0x7fffffffecfc) -- paddr (0xc5cfc) 

-- Tick (34628500) -- ISN: (95649) : L from (0x7fffffffed00) -- of Size = (8) -- vaddr (0x7fffffffed00) -- paddr (0xc5d00) 

-- Tick (34629000) -- ISN: (95652) : L from (0x7fffffffed08) -- of Size = (8) -- vaddr (0x7fffffffed08) -- paddr (0xc5d08) 

-- Tick (34630000) -- ISN: (95637) : L from (0x6bc448) -- of Size = (4) -- vaddr (0x6bc448) -- paddr (0xbc448) 

-- Tick (34630000) -- ISN: (95655) : L from (0x7fffffffed14) -- of Size = (4) -- vaddr (0x7fffffffed14) -- paddr (0xc5d14) 

-- Tick (34630500) -- ISN: (95669) : S -> 0x(0) at (0x7fffffffed08) -- Size = (8) -- vaddr (0x7fffffffed08) -- paddr (0xc5d08) 

-- Tick (34631000) -- ISN: (95672) : S -> 0x(20) at (0x7fffffffed00) -- Size = (8) -- vaddr (0x7fffffffed00) -- paddr (0xc5d00) 

-- Tick (34631500) -- ISN: (95658) : S -> 0x(3) at (0x7fffffffed14) -- Size = (4) -- vaddr (0x7fffffffed14) -- paddr (0xc5d14) 

-- Tick (34631500) -- ISN: (95677) : L from (0x6b90f0) -- of Size = (4) -- vaddr (0x6b90f0) -- paddr (0xb90f0) 

-- Tick (34632000) -- ISN: (95659) : L from (0x7fffffffed14) -- of Size = (4) -- vaddr (0x7fffffffed14) -- paddr (0xc5d14) 

-- Tick (34632000) -- ISN: (95665) : L from (0x7fffffffed14) -- of Size = (4) -- vaddr (0x7fffffffed14) -- paddr (0xc5d14) 

-- Tick (34632000) -- ISN: (95678) : L from (0x7fffffffecfc) -- of Size = (4) -- vaddr (0x7fffffffecfc) -- paddr (0xc5cfc) 

-- Tick (34632000) -- ISN: (95683) : L from (0x7fffffffecfc) -- of Size = (4) -- vaddr (0x7fffffffecfc) -- paddr (0xc5cfc) 

-- Tick (34632500) -- ISN: (95642) : L from (0x6bc410) -- of Size = (1) -- vaddr (0x6bc410) -- paddr (0xbc410) 

-- Tick (34633500) -- ISN: (95675) : S -> 0x(3) at (0x7fffffffecfc) -- Size = (4) -- vaddr (0x7fffffffecfc) -- paddr (0xc5cfc) 

-- Tick (34633500) -- ISN: (95700) : L from (0x7fffffffed00) -- of Size = (8) -- vaddr (0x7fffffffed00) -- paddr (0xc5d00) 

-- Tick (34634000) -- ISN: (95688) : L from (0x6bc448) -- of Size = (4) -- vaddr (0x6bc448) -- paddr (0xbc448) 

-- Tick (34634000) -- ISN: (95703) : L from (0x7fffffffed08) -- of Size = (8) -- vaddr (0x7fffffffed08) -- paddr (0xc5d08) 

-- Sqsh -> ISN (95677)

-- Tick (34635500) -- ISN: (95647) : S -> 0x(0) at (0x6bc428) -- Size = (4) -- vaddr (0x6bc428) -- paddr (0xbc428) 

-- Tick (34639000) -- ISN: (95723) : L from (0x7fffffffecfc) -- of Size = (4) -- vaddr (0x7fffffffecfc) -- paddr (0xc5cfc) 

-- Tick (34639000) -- ISN: (95728) : L from (0x7fffffffecfc) -- of Size = (4) -- vaddr (0x7fffffffecfc) -- paddr (0xc5cfc) 

-- Tick (34641000) -- ISN: (95733) : L from (0x6bc44c) -- of Size = (4) -- vaddr (0x6bc44c) -- paddr (0xbc44c) 

-- Tick (34641500) -- ISN: (95745) : L from (0x7fffffffed00) -- of Size = (8) -- vaddr (0x7fffffffed00) -- paddr (0xc5d00) 

-- Tick (34642000) -- ISN: (95748) : L from (0x7fffffffed08) -- of Size = (8) -- vaddr (0x7fffffffed08) -- paddr (0xc5d08) 

-- Tick (34643000) -- ISN: (95765) : S -> 0x(0) at (0x7fffffffed08) -- Size = (8) -- vaddr (0x7fffffffed08) -- paddr (0xc5d08) 

-- Tick (34643500) -- ISN: (95738) : L from (0x6bc410) -- of Size = (1) -- vaddr (0x6bc410) -- paddr (0xbc410) 

-- Tick (34643500) -- ISN: (95751) : L from (0x7fffffffed14) -- of Size = (4) -- vaddr (0x7fffffffed14) -- paddr (0xc5d14) 

-- Tick (34643500) -- ISN: (95768) : S -> 0x(20) at (0x7fffffffed00) -- Size = (8) -- vaddr (0x7fffffffed00) -- paddr (0xc5d00) 

-- Tick (34643500) -- ISN: (95773) : L from (0x6b90f0) -- of Size = (4) -- vaddr (0x6b90f0) -- paddr (0xb90f0) 

-- Tick (34644000) -- ISN: (95779) : L from (0x7fffffffecfc) -- of Size = (4) -- vaddr (0x7fffffffecfc) -- paddr (0xc5cfc) 

-- Tick (34645500) -- ISN: (95796) : L from (0x7fffffffed00) -- of Size = (8) -- vaddr (0x7fffffffed00) -- paddr (0xc5d00) 

-- Tick (34646000) -- ISN: (95754) : S -> 0x(4) at (0x7fffffffed14) -- Size = (4) -- vaddr (0x7fffffffed14) -- paddr (0xc5d14) 

-- Tick (34646000) -- ISN: (95799) : L from (0x7fffffffed08) -- of Size = (8) -- vaddr (0x7fffffffed08) -- paddr (0xc5d08) 

-- Tick (34646500) -- ISN: (95743) : S -> 0x(0) at (0x6bc428) -- Size = (4) -- vaddr (0x6bc428) -- paddr (0xbc428) 

-- Tick (34646500) -- ISN: (95755) : L from (0x7fffffffed14) -- of Size = (4) -- vaddr (0x7fffffffed14) -- paddr (0xc5d14) 

-- Tick (34646500) -- ISN: (95761) : L from (0x7fffffffed14) -- of Size = (4) -- vaddr (0x7fffffffed14) -- paddr (0xc5d14) 

-- Tick (34646500) -- ISN: (95784) : L from (0x6bc44c) -- of Size = (4) -- vaddr (0x6bc44c) -- paddr (0xbc44c) 

-- Tick (34647000) -- ISN: (95802) : L from (0x7fffffffed14) -- of Size = (4) -- vaddr (0x7fffffffed14) -- paddr (0xc5d14) 

-- Tick (34648000) -- ISN: (95771) : S -> 0x(4) at (0x7fffffffecfc) -- Size = (4) -- vaddr (0x7fffffffecfc) -- paddr (0xc5cfc) 

-- Tick (34648500) -- ISN: (95774) : L from (0x7fffffffecfc) -- of Size = (4) -- vaddr (0x7fffffffecfc) -- paddr (0xc5cfc) 

-- Tick (34648500) -- ISN: (95805) : S -> 0x(5) at (0x7fffffffed14) -- Size = (4) -- vaddr (0x7fffffffed14) -- paddr (0xc5d14) 

-- Tick (34648500) -- ISN: (95816) : S -> 0x(0) at (0x7fffffffed08) -- Size = (8) -- vaddr (0x7fffffffed08) -- paddr (0xc5d08) 

-- Sqsh -> ISN (95778)

-- Tick (34655000) -- ISN: (95846) : L from (0x7fffffffecfc) -- of Size = (4) -- vaddr (0x7fffffffecfc) -- paddr (0xc5cfc) 

[...]

-- Tick (43456500) -- ISN: (110434) : S -> 0x(0) at (0x6bc424) -- Size = (4) -- vaddr (0x6bc424) -- paddr (0xbc424) 

-- Tick (43458500) -- ISN: (110492) : S -> 0x(90) at (0x7fffffffecfc) -- Size = (4) -- vaddr (0x7fffffffecfc) -- paddr (0xc5cfc) 

-- Tick (43459000) -- ISN: (110494) : L from (0x7fffffffecfc) -- of Size = (4) -- vaddr (0x7fffffffecfc) -- paddr (0xc5cfc) 

-- Tick (43459500) -- ISN: (110499) : L from (0x7fffffffecfc) -- of Size = (4) -- vaddr (0x7fffffffecfc) -- paddr (0xc5cfc) 

-- Tick (43460000) -- ISN: (110508) : L from (0x7fffffffecfc) -- of Size = (4) -- vaddr (0x7fffffffecfc) -- paddr (0xc5cfc) 

-- Tick (43461500) -- ISN: (110452) : S -> 0x(0) at (0x6bc424) -- Size = (4) -- vaddr (0x6bc424) -- paddr (0xbc424) 

-- Tick (43461500) -- ISN: (110504) : L from (0x6c4420) -- of Size = (4) -- vaddr (0x6c4420) -- paddr (0xc4420) 

-- Tick (43461500) -- ISN: (110510) : S -> 0x(a0) at (0x7fffffffecfc) -- Size = (4) -- vaddr (0x7fffffffecfc) -- paddr (0xc5cfc) 

-- Tick (43462000) -- ISN: (110512) : L from (0x7fffffffecfc) -- of Size = (4) -- vaddr (0x7fffffffecfc) -- paddr (0xc5cfc) 

-- Tick (43462000) -- ISN: (110517) : L from (0x7fffffffecfc) -- of Size = (4) -- vaddr (0x7fffffffecfc) -- paddr (0xc5cfc) 

-- Tick (43462000) -- ISN: (110526) : L from (0x7fffffffecfc) -- of Size = (4) -- vaddr (0x7fffffffecfc) -- paddr (0xc5cfc) 

-- Tick (43463500) -- ISN: (110528) : S -> 0x(b0) at (0x7fffffffecfc) -- Size = (4) -- vaddr (0x7fffffffecfc) -- paddr (0xc5cfc) 

-- Tick (43464000) -- ISN: (110522) : L from (0x6c4460) -- of Size = (4) -- vaddr (0x6c4460) -- paddr (0xc4460) 

-- Tick (43464000) -- ISN: (110530) : L from (0x7fffffffecfc) -- of Size = (4) -- vaddr (0x7fffffffecfc) -- paddr (0xc5cfc) 

-- Tick (43464000) -- ISN: (110535) : L from (0x7fffffffecfc) -- of Size = (4) -- vaddr (0x7fffffffecfc) -- paddr (0xc5cfc) 

-- Tick (43464000) -- ISN: (110544) : L from (0x7fffffffecfc) -- of Size = (4) -- vaddr (0x7fffffffecfc) -- paddr (0xc5cfc) 

-- Tick (43465500) -- ISN: (110546) : S -> 0x(c0) at (0x7fffffffecfc) -- Size = (4) -- vaddr (0x7fffffffecfc) -- paddr (0xc5cfc) 

-- Tick (43466000) -- ISN: (110540) : L from (0x6c44a0) -- of Size = (4) -- vaddr (0x6c44a0) -- paddr (0xc44a0) 

-- Tick (43466000) -- ISN: (110548) : L from (0x7fffffffecfc) -- of Size = (4) -- vaddr (0x7fffffffecfc) -- paddr (0xc5cfc) 

-- Tick (43466000) -- ISN: (110553) : L from (0x7fffffffecfc) -- of Size = (4) -- vaddr (0x7fffffffecfc) -- paddr (0xc5cfc) 

-- Tick (43466000) -- ISN: (110562) : L from (0x7fffffffecfc) -- of Size = (4) -- vaddr (0x7fffffffecfc) -- paddr (0xc5cfc) 

-- Tick (43467500) -- ISN: (110564) : S -> 0x(d0) at (0x7fffffffecfc) -- Size = (4) -- vaddr (0x7fffffffecfc) -- paddr (0xc5cfc) 

-- Tick (43468000) -- ISN: (110558) : L from (0x6c44e0) -- of Size = (4) -- vaddr (0x6c44e0) -- paddr (0xc44e0) 

-- Tick (43468000) -- ISN: (110566) : L from (0x7fffffffecfc) -- of Size = (4) -- vaddr (0x7fffffffecfc) -- paddr (0xc5cfc) 

-- Tick (43468000) -- ISN: (110571) : L from (0x7fffffffecfc) -- of Size = (4) -- vaddr (0x7fffffffecfc) -- paddr (0xc5cfc) 

-- Tick (43470000) -- ISN: (110576) : L from (0x6c4520) -- of Size = (4) -- vaddr (0x6c4520) -- paddr (0xc4520) 

-- Tick (43488000) -- ISN: (110540) : L from (0x6c44a0) -- of Size = (4) -- vaddr (0x6c44a0) -- paddr (0xc44a0) 

-- Tick (43488000) -- ISN: (110558) : L from (0x6c44e0) -- of Size = (4) -- vaddr (0x6c44e0) -- paddr (0xc44e0) 

-- Tick (43488000) -- ISN: (110576) : L from (0x6c4520) -- of Size = (4) -- vaddr (0x6c4520) -- paddr (0xc4520) 

-- Tick (43488500) -- ISN: (110470) : S -> 0x(0) at (0x6bc424) -- Size = (4) -- vaddr (0x6bc424) -- paddr (0xbc424) 

-- Tick (43490500) -- ISN: (110580) : L from (0x7fffffffecfc) -- of Size = (4) -- vaddr (0x7fffffffecfc) -- paddr (0xc5cfc) 

-- Tick (43499000) -- ISN: (110558) : L from (0x6c44e0) -- of Size = (4) -- vaddr (0x6c44e0) -- paddr (0xc44e0) 

-- Tick (43499000) -- ISN: (110576) : L from (0x6c4520) -- of Size = (4) -- vaddr (0x6c4520) -- paddr (0xc4520) 

-- Tick (43499500) -- ISN: (110488) : S -> 0x(0) at (0x6bc424) -- Size = (4) -- vaddr (0x6bc424) -- paddr (0xbc424) 

-- Tick (43501500) -- ISN: (110582) : S -> 0x(e0) at (0x7fffffffecfc) -- Size = (4) -- vaddr (0x7fffffffecfc) -- paddr (0xc5cfc) 

-- Tick (43502000) -- ISN: (110584) : L from (0x7fffffffecfc) -- of Size = (4) -- vaddr (0x7fffffffecfc) -- paddr (0xc5cfc) 

-- Tick (43502500) -- ISN: (110589) : L from (0x7fffffffecfc) -- of Size = (4) -- vaddr (0x7fffffffecfc) -- paddr (0xc5cfc) 

-- Tick (43504500) -- ISN: (110594) : L from (0x6c4560) -- of Size = (4) -- vaddr (0x6c4560) -- paddr (0xc4560) 

-- Tick (43516000) -- ISN: (110576) : L from (0x6c4520) -- of Size = (4) -- vaddr (0x6c4520) -- paddr (0xc4520) 

-- Tick (43516000) -- ISN: (110594) : L from (0x6c4560) -- of Size = (4) -- vaddr (0x6c4560) -- paddr (0xc4560) 

-- Tick (43516500) -- ISN: (110506) : S -> 0x(0) at (0x6bc424) -- Size = (4) -- vaddr (0x6bc424) -- paddr (0xbc424) 

-- Tick (43519500) -- ISN: (110598) : L from (0x7fffffffecfc) -- of Size = (4) -- vaddr (0x7fffffffecfc) -- paddr (0xc5cfc) 

-- Tick (43521000) -- ISN: (110594) : L from (0x6c4560) -- of Size = (4) -- vaddr (0x6c4560) -- paddr (0xc4560) 

-- Tick (43521500) -- ISN: (110524) : S -> 0x(0) at (0x6bc424) -- Size = (4) -- vaddr (0x6bc424) -- paddr (0xbc424) 

-- Tick (43523500) -- ISN: (110600) : S -> 0x(f0) at (0x7fffffffecfc) -- Size = (4) -- vaddr (0x7fffffffecfc) -- paddr (0xc5cfc) 

-- Tick (43524000) -- ISN: (110602) : L from (0x7fffffffecfc) -- of Size = (4) -- vaddr (0x7fffffffecfc) -- paddr (0xc5cfc) 

-- Tick (43524000) -- ISN: (110607) : L from (0x7fffffffecfc) -- of Size = (4) -- vaddr (0x7fffffffecfc) -- paddr (0xc5cfc) 

-- Tick (43526000) -- ISN: (110612) : L from (0x6c45a0) -- of Size = (4) -- vaddr (0x6c45a0) -- paddr (0xc45a0) 

-- Tick (43543000) -- ISN: (110612) : L from (0x6c45a0) -- of Size = (4) -- vaddr (0x6c45a0) -- paddr (0xc45a0) 

-- Tick (43543500) -- ISN: (110542) : S -> 0x(0) at (0x6bc424) -- Size = (4) -- vaddr (0x6bc424) -- paddr (0xbc424) 

-- Tick (43545500) -- ISN: (110616) : L from (0x7fffffffecfc) -- of Size = (4) -- vaddr (0x7fffffffecfc) -- paddr (0xc5cfc) 

-- Tick (43554500) -- ISN: (110560) : S -> 0x(0) at (0x6bc424) -- Size = (4) -- vaddr (0x6bc424) -- paddr (0xbc424) 

-- Tick (43556500) -- ISN: (110618) : S -> 0x(0) at (0x7fffffffecfc) -- Size = (4) -- vaddr (0x7fffffffecfc) -- paddr (0xc5cfc) 

-- Tick (43557000) -- ISN: (110620) : L from (0x7fffffffecfc) -- of Size = (4) -- vaddr (0x7fffffffecfc) -- paddr (0xc5cfc) 

-- Tick (43557500) -- ISN: (110625) : L from (0x7fffffffecfc) -- of Size = (4) -- vaddr (0x7fffffffecfc) -- paddr (0xc5cfc) 

-- Tick (43558000) -- ISN: (110634) : L from (0x7fffffffecfc) -- of Size = (4) -- vaddr (0x7fffffffecfc) -- paddr (0xc5cfc) 

-- Sqsh -> ISN (110624)

-- Tick (43564000) -- ISN: (110680) : L from (0x7fffffffed00) -- of Size = (8) -- vaddr (0x7fffffffed00) -- paddr (0xc5d00) 

-- Tick (43564500) -- ISN: (110683) : L from (0x7fffffffed08) -- of Size = (8) -- vaddr (0x7fffffffed08) -- paddr (0xc5d08) 

-- Tick (43565500) -- ISN: (110689) : S -> 0x(25) at (0x7fffffffed08) -- Size = (8) -- vaddr (0x7fffffffed08) -- paddr (0xc5d08) 

-- Sqsh -> ISN (110691)

-- Tick (43567000) -- ISN: (110683) : L from (0x7fffffffed08) -- of Size = (8) -- vaddr (0x7fffffffed08) -- paddr (0xc5d08) 

-- Tick (43567500) -- ISN: (110578) : S -> 0x(0) at (0x6bc424) -- Size = (4) -- vaddr (0x6bc424) -- paddr (0xbc424) 

-- Tick (43571500) -- ISN: (110744) : L from (0x6b90f0) -- of Size = (4) -- vaddr (0x6b90f0) -- paddr (0xb90f0) 

-- Tick (43573000) -- ISN: (110767) : L from (0x7fffffffed00) -- of Size = (8) -- vaddr (0x7fffffffed00) -- paddr (0xc5d00) 

-- Tick (43573500) -- ISN: (110770) : L from (0x7fffffffed08) -- of Size = (8) -- vaddr (0x7fffffffed08) -- paddr (0xc5d08) 

-- Sqsh -> ISN (110777)

-- Tick (43576000) -- ISN: (110767) : L from (0x7fffffffed00) -- of Size = (8) -- vaddr (0x7fffffffed00) -- paddr (0xc5d00) 

-- Tick (43576500) -- ISN: (110596) : S -> 0x(0) at (0x6bc424) -- Size = (4) -- vaddr (0x6bc424) -- paddr (0xbc424) 

-- Tick (43581500) -- ISN: (110829) : S -> 0x(49) at (0x7fffffffed08) -- Size = (8) -- vaddr (0x7fffffffed08) -- paddr (0xc5d08) 

-- Tick (43581500) -- ISN: (110834) : L from (0x6c58a8) -- of Size = (8) -- vaddr (0x6c58a8) -- paddr (0xc78a8) 

-- Tick (43582000) -- ISN: (110841) : S -> 0x(62) at (0x7fffffffed00) -- Size = (8) -- vaddr (0x7fffffffed00) -- paddr (0xc5d00) 

-- Sqsh -> ISN (110831)

-- Tick (43587000) -- ISN: (110739) : S -> 0x(20) at (0x7fffffffed00) -- Size = (8) -- vaddr (0x7fffffffed00) -- paddr (0xc5d00) 

-- Tick (43587500) -- ISN: (110742) : S -> 0x(69) at (0x7fffffffecfc) -- Size = (4) -- vaddr (0x7fffffffecfc) -- paddr (0xc5cfc) 

-- Tick (43587500) -- ISN: (110885) : L from (0x7fffffffed08) -- of Size = (8) -- vaddr (0x7fffffffed08) -- paddr (0xc5d08) 

-- Sqsh -> ISN (110766)

-- Tick (43588000) -- ISN: (110745) : L from (0x7fffffffecfc) -- of Size = (4) -- vaddr (0x7fffffffecfc) -- paddr (0xc5cfc) 

-- Tick (43588000) -- ISN: (110750) : L from (0x7fffffffecfc) -- of Size = (4) -- vaddr (0x7fffffffecfc) -- paddr (0xc5cfc) 

-- Tick (43590000) -- ISN: (110755) : L from (0x6bc5e4) -- of Size = (4) -- vaddr (0x6bc5e4) -- paddr (0xbc5e4) 

-- Tick (43595500) -- ISN: (110922) : L from (0x7fffffffed00) -- of Size = (8) -- vaddr (0x7fffffffed00) -- paddr (0xc5d00) 

-- Tick (43596000) -- ISN: (110925) : L from (0x7fffffffed08) -- of Size = (8) -- vaddr (0x7fffffffed08) -- paddr (0xc5d08) 

-- Tick (43597000) -- ISN: (110929) : S -> 0x(0) at (0x7fffffffed10) -- Size = (4) -- vaddr (0x7fffffffed10) -- paddr (0xc5d10) 

-- Tick (43597000) -- ISN: (110933) : L from (0x7fffffffed10) -- of Size = (4) -- vaddr (0x7fffffffed10) -- paddr (0xc5d10) 

-- Tick (43598000) -- ISN: (110942) : S -> 0x(49) at (0x7fffffffed08) -- Size = (8) -- vaddr (0x7fffffffed08) -- paddr (0xc5d08) 

-- Sqsh -> ISN (110938)

-- Tick (43612500) -- ISN: (110614) : S -> 0x(0) at (0x6bc424) -- Size = (4) -- vaddr (0x6bc424) -- paddr (0xbc424) 

-- Tick (43617000) -- ISN: (110987) : L from (0x7fffffffed10) -- of Size = (4) -- vaddr (0x7fffffffed10) -- paddr (0xc5d10) 

-- Tick (43617000) -- ISN: (110991) : L from (0x7fffffffed10) -- of Size = (4) -- vaddr (0x7fffffffed10) -- paddr (0xc5d10) 

-- Tick (43617500) -- ISN: (110997) : L from (0x7fffffffed10) -- of Size = (4) -- vaddr (0x7fffffffed10) -- paddr (0xc5d10) 

-- Tick (43617500) -- ISN: (111001) : L from (0x7fffffffed10) -- of Size = (4) -- vaddr (0x7fffffffed10) -- paddr (0xc5d10) 

-- Tick (43618500) -- ISN: (110990) : S -> 0x(1) at (0x7fffffffed10) -- Size = (4) -- vaddr (0x7fffffffed10) -- paddr (0xc5d10) 

-- Tick (43618500) -- ISN: (111014) : L from (0x7fffffffed18) -- of Size = (8) -- vaddr (0x7fffffffed18) -- paddr (0xc5d18) 

-- Tick (43619000) -- ISN: (111000) : S -> 0x(1) at (0x7fffffffed10) -- Size = (4) -- vaddr (0x7fffffffed10) -- paddr (0xc5d10) 

-- Tick (43619000) -- ISN: (111010) : S -> 0x(49) at (0x7fffffffed08) -- Size = (8) -- vaddr (0x7fffffffed08) -- paddr (0xc5d08) 

-- Tick (43619000) -- ISN: (111015) : L from (0x6c58a8) -- of Size = (8) -- vaddr (0x6c58a8) -- paddr (0xc78a8) 

-- Sqsh -> ISN (110990)

-- Tick (43625500) -- ISN: (111073) : L from (0x7fffffffed10) -- of Size = (4) -- vaddr (0x7fffffffed10) -- paddr (0xc5d10) 

-- Tick (43626500) -- ISN: (111079) : L from (0x7fffffffed10) -- of Size = (4) -- vaddr (0x7fffffffed10) -- paddr (0xc5d10) 

-- Tick (43627500) -- ISN: (111092) : S -> 0x(49) at (0x7fffffffed08) -- Size = (8) -- vaddr (0x7fffffffed08) -- paddr (0xc5d08) 

-- Tick (43628000) -- ISN: (111082) : S -> 0x(2) at (0x7fffffffed10) -- Size = (4) -- vaddr (0x7fffffffed10) -- paddr (0xc5d10) 

-- Sqsh -> ISN (111094)

-- Tick (43628500) -- ISN: (111083) : L from (0x7fffffffed10) -- of Size = (4) -- vaddr (0x7fffffffed10) -- paddr (0xc5d10) 

-- Sqsh -> ISN (111088)

-- Sqsh -> ISN (110749)

-- Tick (43741000) -- ISN: (111192) : L from (0x7fffffffed00) -- of Size = (8) -- vaddr (0x7fffffffed00) -- paddr (0xc5d00) 

-- Tick (43741500) -- ISN: (111195) : L from (0x7fffffffed08) -- of Size = (8) -- vaddr (0x7fffffffed08) -- paddr (0xc5d08) 

-- Tick (43743000) -- ISN: (111199) : S -> 0x(0) at (0x7fffffffed10) -- Size = (4) -- vaddr (0x7fffffffed10) -- paddr (0xc5d10) 

-- Tick (43743000) -- ISN: (111203) : L from (0x7fffffffed10) -- of Size = (4) -- vaddr (0x7fffffffed10) -- paddr (0xc5d10) 

-- Tick (43743000) -- ISN: (111220) : L from (0x7fffffffed18) -- of Size = (8) -- vaddr (0x7fffffffed18) -- paddr (0xc5d18) 

-- Sqsh -> ISN (111202)

-- Tick (43748500) -- ISN: (111271) : L from (0x7fffffffed10) -- of Size = (4) -- vaddr (0x7fffffffed10) -- paddr (0xc5d10) 

-- Tick (43749500) -- ISN: (111284) : L from (0x7fffffffed18) -- of Size = (8) -- vaddr (0x7fffffffed18) -- paddr (0xc5d18) 

-- Tick (43750000) -- ISN: (111280) : S -> 0x(49) at (0x7fffffffed08) -- Size = (8) -- vaddr (0x7fffffffed08) -- paddr (0xc5d08) 

-- Tick (43750000) -- ISN: (111285) : L from (0x6c58a8) -- of Size = (8) -- vaddr (0x6c58a8) -- paddr (0xc78a8) 

-- Tick (43750500) -- ISN: (111292) : S -> 0x(62) at (0x7fffffffed00) -- Size = (8) -- vaddr (0x7fffffffed00) -- paddr (0xc5d00) 

-- Sqsh -> ISN (111282)

-- Sqsh -> ISN (111276)

-- Tick (43756500) -- ISN: (111335) : L from (0x7fffffffed10) -- of Size = (4) -- vaddr (0x7fffffffed10) -- paddr (0xc5d10) 

-- Tick (43758000) -- ISN: (111348) : S -> 0x(49) at (0x7fffffffed08) -- Size = (8) -- vaddr (0x7fffffffed08) -- paddr (0xc5d08) 

-- Tick (43758000) -- ISN: (111352) : L from (0x7fffffffed18) -- of Size = (8) -- vaddr (0x7fffffffed18) -- paddr (0xc5d18) 

-- Tick (43758000) -- ISN: (111353) : L from (0x6c58a8) -- of Size = (8) -- vaddr (0x6c58a8) -- paddr (0xc78a8) 

-- Tick (43758500) -- ISN: (111338) : S -> 0x(1) at (0x7fffffffed10) -- Size = (4) -- vaddr (0x7fffffffed10) -- paddr (0xc5d10) 

-- Sqsh -> ISN (111350)

-- Tick (43759000) -- ISN: (111339) : L from (0x7fffffffed10) -- of Size = (4) -- vaddr (0x7fffffffed10) -- paddr (0xc5d10) 

-- Sqsh -> ISN (111344)

-- Tick (43766500) -- ISN: (111407) : L from (0x7fffffffed10) -- of Size = (4) -- vaddr (0x7fffffffed10) -- paddr (0xc5d10) 

-- Tick (43767500) -- ISN: (111417) : L from (0x7fffffffed10) -- of Size = (4) -- vaddr (0x7fffffffed10) -- paddr (0xc5d10) 

-- Tick (43768500) -- ISN: (111410) : S -> 0x(2) at (0x7fffffffed10) -- Size = (4) -- vaddr (0x7fffffffed10) -- paddr (0xc5d10) 

-- Tick (43768500) -- ISN: (111430) : S -> 0x(49) at (0x7fffffffed08) -- Size = (8) -- vaddr (0x7fffffffed08) -- paddr (0xc5d08) 

-- Tick (43769000) -- ISN: (111411) : L from (0x7fffffffed10) -- of Size = (4) -- vaddr (0x7fffffffed10) -- paddr (0xc5d10) 

-- Tick (43769000) -- ISN: (111434) : L from (0x7fffffffed08) -- of Size = (8) -- vaddr (0x7fffffffed08) -- paddr (0xc5d08) 

-- Sqsh -> ISN (111416)

-- Tick (43774000) -- ISN: (111463) : L from (0x7fffffffed10) -- of Size = (4) -- vaddr (0x7fffffffed10) -- paddr (0xc5d10) 

-- Tick (43775500) -- ISN: (111476) : S -> 0x(49) at (0x7fffffffed08) -- Size = (8) -- vaddr (0x7fffffffed08) -- paddr (0xc5d08) 

-- Tick (43776000) -- ISN: (111466) : S -> 0x(3) at (0x7fffffffed10) -- Size = (4) -- vaddr (0x7fffffffed10) -- paddr (0xc5d10) 

-- Tick (43776000) -- ISN: (111480) : L from (0x7fffffffed08) -- of Size = (8) -- vaddr (0x7fffffffed08) -- paddr (0xc5d08) 

-- Tick (43776500) -- ISN: (111467) : L from (0x7fffffffed10) -- of Size = (4) -- vaddr (0x7fffffffed10) -- paddr (0xc5d10) 

-- Tick (43777000) -- ISN: (111484) : L from (0x7fffffffed18) -- of Size = (8) -- vaddr (0x7fffffffed18) -- paddr (0xc5d18) 

-- Tick (43777000) -- ISN: (111485) : L from (0x6c58a8) -- of Size = (8) -- vaddr (0x6c58a8) -- paddr (0xc78a8) 

-- Tick (43778000) -- ISN: (111492) : S -> 0x(62) at (0x7fffffffed08) -- Size = (8) -- vaddr (0x7fffffffed08) -- paddr (0xc5d08) 

-- Tick (43778000) -- ISN: (111496) : L from (0x7fffffffed20) -- of Size = (8) -- vaddr (0x7fffffffed20) -- paddr (0xc5d20) 

-- Sqsh -> ISN (111472)

-- Tick (43784500) -- ISN: (111529) : L from (0x7fffffffed10) -- of Size = (4) -- vaddr (0x7fffffffed10) -- paddr (0xc5d10) 

-- Tick (43786500) -- ISN: (111532) : S -> 0x(4) at (0x7fffffffed10) -- Size = (4) -- vaddr (0x7fffffffed10) -- paddr (0xc5d10) 

-- Tick (43787000) -- ISN: (111533) : L from (0x7fffffffed10) -- of Size = (4) -- vaddr (0x7fffffffed10) -- paddr (0xc5d10) 

-- Tick (43787000) -- ISN: (111539) : L from (0x7fffffffed10) -- of Size = (4) -- vaddr (0x7fffffffed10) -- paddr (0xc5d10) 

-- Tick (43788500) -- ISN: (111542) : S -> 0x(5) at (0x7fffffffed10) -- Size = (4) -- vaddr (0x7fffffffed10) -- paddr (0xc5d10) 

-- Tick (43789000) -- ISN: (111543) : L from (0x7fffffffed10) -- of Size = (4) -- vaddr (0x7fffffffed10) -- paddr (0xc5d10) 

-- Tick (43789000) -- ISN: (111549) : L from (0x7fffffffed10) -- of Size = (4) -- vaddr (0x7fffffffed10) -- paddr (0xc5d10) 

-- Tick (43790500) -- ISN: (111552) : S -> 0x(6) at (0x7fffffffed10) -- Size = (4) -- vaddr (0x7fffffffed10) -- paddr (0xc5d10) 

-- Tick (43791000) -- ISN: (111553) : L from (0x7fffffffed10) -- of Size = (4) -- vaddr (0x7fffffffed10) -- paddr (0xc5d10) 

-- Tick (43791000) -- ISN: (111559) : L from (0x7fffffffed10) -- of Size = (4) -- vaddr (0x7fffffffed10) -- paddr (0xc5d10) 

-- Tick (43792500) -- ISN: (111562) : S -> 0x(7) at (0x7fffffffed10) -- Size = (4) -- vaddr (0x7fffffffed10) -- paddr (0xc5d10) 

-- Tick (43793000) -- ISN: (111563) : L from (0x7fffffffed10) -- of Size = (4) -- vaddr (0x7fffffffed10) -- paddr (0xc5d10) 

-- Tick (43793000) -- ISN: (111569) : L from (0x7fffffffed10) -- of Size = (4) -- vaddr (0x7fffffffed10) -- paddr (0xc5d10) 

-- Tick (43794500) -- ISN: (111572) : S -> 0x(8) at (0x7fffffffed10) -- Size = (4) -- vaddr (0x7fffffffed10) -- paddr (0xc5d10) 

-- Tick (43795000) -- ISN: (111573) : L from (0x7fffffffed10) -- of Size = (4) -- vaddr (0x7fffffffed10) -- paddr (0xc5d10) 

-- Tick (43795000) -- ISN: (111579) : L from (0x7fffffffed10) -- of Size = (4) -- vaddr (0x7fffffffed10) -- paddr (0xc5d10) 

-- Tick (43796500) -- ISN: (111582) : S -> 0x(9) at (0x7fffffffed10) -- Size = (4) -- vaddr (0x7fffffffed10) -- paddr (0xc5d10) 

-- Tick (43797000) -- ISN: (111583) : L from (0x7fffffffed10) -- of Size = (4) -- vaddr (0x7fffffffed10) -- paddr (0xc5d10) 

-- Tick (43797000) -- ISN: (111589) : L from (0x7fffffffed10) -- of Size = (4) -- vaddr (0x7fffffffed10) -- paddr (0xc5d10) 

-- Tick (43798500) -- ISN: (111592) : S -> 0x(a) at (0x7fffffffed10) -- Size = (4) -- vaddr (0x7fffffffed10) -- paddr (0xc5d10) 

-- Tick (43799000) -- ISN: (111593) : L from (0x7fffffffed10) -- of Size = (4) -- vaddr (0x7fffffffed10) -- paddr (0xc5d10) 

-- Tick (43799000) -- ISN: (111599) : L from (0x7fffffffed10) -- of Size = (4) -- vaddr (0x7fffffffed10) -- paddr (0xc5d10) 

-- Tick (43800500) -- ISN: (111602) : S -> 0x(b) at (0x7fffffffed10) -- Size = (4) -- vaddr (0x7fffffffed10) -- paddr (0xc5d10) 

-- Tick (43801000) -- ISN: (111603) : L from (0x7fffffffed10) -- of Size = (4) -- vaddr (0x7fffffffed10) -- paddr (0xc5d10) 

-- Tick (43801000) -- ISN: (111609) : L from (0x7fffffffed10) -- of Size = (4) -- vaddr (0x7fffffffed10) -- paddr (0xc5d10) 

-- Sqsh -> ISN (111598)

-- Tick (43811000) -- ISN: (111746) : L from (0x7fffffffed18) -- of Size = (8) -- vaddr (0x7fffffffed18) -- paddr (0xc5d18) 

-- Tick (43811500) -- ISN: (111742) : S -> 0x(49) at (0x7fffffffed08) -- Size = (8) -- vaddr (0x7fffffffed08) -- paddr (0xc5d08) 

-- Tick (43812000) -- ISN: (111747) : L from (0x6c58a8) -- of Size = (8) -- vaddr (0x6c58a8) -- paddr (0xc78a8) 

-- Sqsh -> ISN (111744)

-- Tick (43817000) -- ISN: (111806) : L from (0x7fffffffed08) -- of Size = (8) -- vaddr (0x7fffffffed08) -- paddr (0xc5d08) 

HERE 2 : enable_memreq_tracing = 0
Exiting @ tick 47117500 because exiting with last active thread context
