gem5 Simulator System.  http://gem5.org
gem5 is copyrighted software; use the --copyright option for details.

gem5 compiled Apr  7 2020 12:35:13
gem5 started Apr  8 2020 15:12:36
gem5 executing on tarund-desk, pid 16131
command line: build/X86/gem5.opt configs/example/se.py --cmd=./tests/my_progs/spectre_v4 --cpu-type=DerivO3CPU --caches --mem-size=4GB --l1d_size=1kB --l1i_size=1kB --l1d_assoc=1 --l1i_assoc=1 --cacheline_size=64

Global frequency set at 1000000000000 ticks per second
**** REAL SIMULATION ****
HERE 1 : enable_memreq_tracing = 1
-- Sqsh -> ISN (30720)

-- PC: (0x400b65)- Tick (40665500) - ISN: (30717) :: S -> (0x0) at (0x7fffffffed2c) of Size = (4) -- vaddr (0x7fffffffed2c) -- paddr (0x1c1d2c) 

-- ReadReq [b80:bbf] IF Miss --  Latency: 502 

-- WriteReq [1c1d2c:1c1d2f] Hit -- Blk -> state: f (M) valid: 1 writable: 1 readable: 1 dirty: 1 | tag: 0x707 set: 0x4 way: 0 Latency: 2 

-- ReadReq [bc0:bff] IF Hit -- Blk -> state: 7 (E) valid: 1 writable: 1 readable: 1 dirty: 0 | tag: 0x2 set: 0xf way: 0 Latency: 2 

-- PC: (0x400b83)- Tick (40686000) - ISN: (30728) :: L from (0x7fffffffed2c) of Size = (4) -- vaddr (0x7fffffffed2c) -- paddr (0x1c1d2c) 

-- ReadReq [1c1d2c:1c1d2f] Hit -- Blk -> state: f (M) valid: 1 writable: 1 readable: 1 dirty: 1 | tag: 0x707 set: 0x4 way: 0 Latency: 2 

-- PC: (0x400ba3)- Tick (40686500) - ISN: (30742) :: L from (0x7fffffffed2c) of Size = (4) -- vaddr (0x7fffffffed2c) -- paddr (0x1c1d2c) 

-- ReadReq [1c1d2c:1c1d2f] Hit -- Blk -> state: f (M) valid: 1 writable: 1 readable: 1 dirty: 1 | tag: 0x707 set: 0x4 way: 0 Latency: 2 

-- PC: (0x400b93)- Tick (40687000) - ISN: (30736) :: S -> (0xc0) at (0x7c03e8) of Size = (8) -- vaddr (0x7c03e8) -- paddr (0x1c03e8) 

-- PC: (0x400b9a)- Tick (40687000) - ISN: (30738) :: S -> (0x0) at (0x7fffffffed2c) of Size = (4) -- vaddr (0x7fffffffed2c) -- paddr (0x1c1d2c) 

-- PC: (0x400bb4)- Tick (40687000) - ISN: (30749) :: L from (0x7fffffffed2c) of Size = (4) -- vaddr (0x7fffffffed2c) -- paddr (0x1c1d2c) 

-- ReadReq [c00:c3f] IF Miss --  Latency: 502 

-- PC: (0x400bb8)- Tick (40687500) - ISN: (30753) :: L from (0x7fffffffed2c) of Size = (4) -- vaddr (0x7fffffffed2c) -- paddr (0x1c1d2c) 

-- Sqsh -> ISN (30741)

-- ReadReq [b80:bbf] IF Hit -- Blk -> state: 7 (E) valid: 1 writable: 1 readable: 1 dirty: 0 | tag: 0x2 set: 0xe way: 0 Latency: 2 

-- Sqsh -> ISN (30732)

-- ReadReq [b40:b7f] IF Hit -- Blk -> state: 7 (E) valid: 1 writable: 1 readable: 1 dirty: 0 | tag: 0x2 set: 0xd way: 0 Latency: 2 

-- ReadReq [b80:bbf] IF Hit -- Blk -> state: 7 (E) valid: 1 writable: 1 readable: 1 dirty: 0 | tag: 0x2 set: 0xe way: 0 Latency: 2 

-- ReadReq [bc0:bff] IF Hit -- Blk -> state: 7 (E) valid: 1 writable: 1 readable: 1 dirty: 0 | tag: 0x2 set: 0xf way: 0 Latency: 2 

-- PC: (0x400b6e)- Tick (40693500) - ISN: (30781) :: L from (0x7fffffffed2c) of Size = (4) -- vaddr (0x7fffffffed2c) -- paddr (0x1c1d2c) 

-- ReadReq [1c1d2c:1c1d2f] Hit -- Blk -> state: f (M) valid: 1 writable: 1 readable: 1 dirty: 1 | tag: 0x707 set: 0x4 way: 0 Latency: 2 

-- PC: (0x400b7f)- Tick (40694500) - ISN: (30788) :: L from (0x7fffffffed2c) of Size = (4) -- vaddr (0x7fffffffed2c) -- paddr (0x1c1d2c) 

-- ReadReq [1c1d2c:1c1d2f] Hit -- Blk -> state: f (M) valid: 1 writable: 1 readable: 1 dirty: 1 | tag: 0x707 set: 0x4 way: 0 Latency: 2 

-- PC: (0x400b83)- Tick (40694500) - ISN: (30792) :: L from (0x7fffffffed2c) of Size = (4) -- vaddr (0x7fffffffed2c) -- paddr (0x1c1d2c) 

-- ReadReq [1c1d2c:1c1d2f] Hit -- Blk -> state: f (M) valid: 1 writable: 1 readable: 1 dirty: 1 | tag: 0x707 set: 0x4 way: 0 Latency: 2 

-- PC: (0x400b7b)- Tick (40695500) - ISN: (30786) :: S -> (0x1) at (0x6bc3c0) of Size = (1) -- vaddr (0x6bc3c0) -- paddr (0xbc3c0) 

-- PC: (0x400b9a)- Tick (40695500) - ISN: (30802) :: S -> (0x0) at (0x7fffffffed2c) of Size = (4) -- vaddr (0x7fffffffed2c) -- paddr (0x1c1d2c) 

-- ReadReq [c00:c3f] IF Miss --  Latency: 502 

-- PC: (0x400b93)- Tick (40696000) - ISN: (30800) :: S -> (0xc0) at (0x7c03e8) of Size = (8) -- vaddr (0x7c03e8) -- paddr (0x1c03e8) 

-- PC: (0x400ba3)- Tick (40696000) - ISN: (30806) :: L from (0x7fffffffed2c) of Size = (4) -- vaddr (0x7fffffffed2c) -- paddr (0x1c1d2c) 

-- PC: (0x400bb4)- Tick (40696000) - ISN: (30813) :: L from (0x7fffffffed2c) of Size = (4) -- vaddr (0x7fffffffed2c) -- paddr (0x1c1d2c) 

-- PC: (0x400b7f)- Tick (40696500) - ISN: (30790) :: S -> (0x1) at (0x7fffffffed2c) of Size = (4) -- vaddr (0x7fffffffed2c) -- paddr (0x1c1d2c) 

-- PC: (0x400bb8)- Tick (40696500) - ISN: (30817) :: L from (0x7fffffffed2c) of Size = (4) -- vaddr (0x7fffffffed2c) -- paddr (0x1c1d2c) 

-- Sqsh -> ISN (30805)

-- Sqsh -> ISN (30791)

-- ReadReq [b80:bbf] IF Hit -- Blk -> state: 7 (E) valid: 1 writable: 1 readable: 1 dirty: 0 | tag: 0x2 set: 0xe way: 0 Latency: 2 

-- ReadReq [bc0:bff] IF Hit -- Blk -> state: 7 (E) valid: 1 writable: 1 readable: 1 dirty: 0 | tag: 0x2 set: 0xf way: 0 Latency: 2 

-- WriteReq [bc3c0:bc3c0] Miss --  Latency: 502 

-- PC: (0x400b83)- Tick (40702000) - ISN: (30845) :: L from (0x7fffffffed2c) of Size = (4) -- vaddr (0x7fffffffed2c) -- paddr (0x1c1d2c) 

-- ReadReq [c00:c3f] IF Miss --  Latency: 502 

-- PC: (0x400b93)- Tick (40704000) - ISN: (30853) :: S -> (0xc0) at (0x7c03e8) of Size = (8) -- vaddr (0x7c03e8) -- paddr (0x1c03e8) 

-- PC: (0x400b9a)- Tick (40704000) - ISN: (30855) :: S -> (0x0) at (0x7fffffffed2c) of Size = (4) -- vaddr (0x7fffffffed2c) -- paddr (0x1c1d2c) 

-- PC: (0x400bb8)- Tick (40704000) - ISN: (30860) :: L from (0x7fffffffed2c) of Size = (4) -- vaddr (0x7fffffffed2c) -- paddr (0x1c1d2c) 

-- Sqsh -> ISN (30849)

-- ReadReq [b40:b7f] IF Hit -- Blk -> state: 7 (E) valid: 1 writable: 1 readable: 1 dirty: 0 | tag: 0x2 set: 0xd way: 0 Latency: 2 

-- ReadReq [b80:bbf] IF Hit -- Blk -> state: 7 (E) valid: 1 writable: 1 readable: 1 dirty: 0 | tag: 0x2 set: 0xe way: 0 Latency: 2 

-- ReadReq [bc0:bff] IF Hit -- Blk -> state: 7 (E) valid: 1 writable: 1 readable: 1 dirty: 0 | tag: 0x2 set: 0xf way: 0 Latency: 2 

-- PC: (0x400b6e)- Tick (40709000) - ISN: (30888) :: L from (0x7fffffffed2c) of Size = (4) -- vaddr (0x7fffffffed2c) -- paddr (0x1c1d2c) 

-- PC: (0x400b7f)- Tick (40710000) - ISN: (30895) :: L from (0x7fffffffed2c) of Size = (4) -- vaddr (0x7fffffffed2c) -- paddr (0x1c1d2c) 

-- PC: (0x400b7b)- Tick (40710500) - ISN: (30893) :: S -> (0x1) at (0x6bc3c1) of Size = (1) -- vaddr (0x6bc3c1) -- paddr (0xbc3c1) 

-- PC: (0x400b9a)- Tick (40711000) - ISN: (30909) :: S -> (0x0) at (0x7fffffffed2c) of Size = (4) -- vaddr (0x7fffffffed2c) -- paddr (0x1c1d2c) 

-- ReadReq [c00:c3f] IF Miss --  Latency: 502 

-- PC: (0x400b7f)- Tick (40711500) - ISN: (30897) :: S -> (0x2) at (0x7fffffffed2c) of Size = (4) -- vaddr (0x7fffffffed2c) -- paddr (0x1c1d2c) 

-- PC: (0x400b93)- Tick (40711500) - ISN: (30907) :: S -> (0xc0) at (0x7c03e8) of Size = (8) -- vaddr (0x7c03e8) -- paddr (0x1c03e8) 

-- PC: (0x400ba3)- Tick (40711500) - ISN: (30913) :: L from (0x7fffffffed2c) of Size = (4) -- vaddr (0x7fffffffed2c) -- paddr (0x1c1d2c) 

-- PC: (0x400bb4)- Tick (40711500) - ISN: (30920) :: L from (0x7fffffffed2c) of Size = (4) -- vaddr (0x7fffffffed2c) -- paddr (0x1c1d2c) 

-- PC: (0x400b83)- Tick (40712000) - ISN: (30899) :: L from (0x7fffffffed2c) of Size = (4) -- vaddr (0x7fffffffed2c) -- paddr (0x1c1d2c) 

-- PC: (0x400bb8)- Tick (40712000) - ISN: (30924) :: L from (0x7fffffffed2c) of Size = (4) -- vaddr (0x7fffffffed2c) -- paddr (0x1c1d2c) 

-- Sqsh -> ISN (30912)

-- ReadReq [b80:bbf] IF Hit -- Blk -> state: 7 (E) valid: 1 writable: 1 readable: 1 dirty: 0 | tag: 0x2 set: 0xe way: 0 Latency: 2 

-- ReadReq [bc0:bff] IF Hit -- Blk -> state: 7 (E) valid: 1 writable: 1 readable: 1 dirty: 0 | tag: 0x2 set: 0xf way: 0 Latency: 2 

-- Sqsh -> ISN (30903)

-- ReadReq [b40:b7f] IF Hit -- Blk -> state: 7 (E) valid: 1 writable: 1 readable: 1 dirty: 0 | tag: 0x2 set: 0xd way: 0 Latency: 2 

-- ReadReq [b80:bbf] IF Hit -- Blk -> state: 7 (E) valid: 1 writable: 1 readable: 1 dirty: 0 | tag: 0x2 set: 0xe way: 0 Latency: 2 

-- ReadReq [bc0:bff] IF Hit -- Blk -> state: 7 (E) valid: 1 writable: 1 readable: 1 dirty: 0 | tag: 0x2 set: 0xf way: 0 Latency: 2 

-- PC: (0x400b6e)- Tick (40719500) - ISN: (30955) :: L from (0x7fffffffed2c) of Size = (4) -- vaddr (0x7fffffffed2c) -- paddr (0x1c1d2c) 

-- PC: (0x400b7f)- Tick (40720500) - ISN: (30962) :: L from (0x7fffffffed2c) of Size = (4) -- vaddr (0x7fffffffed2c) -- paddr (0x1c1d2c) 

-- ReadReq [c00:c3f] IF Miss --  Latency: 502 

-- PC: (0x400b7b)- Tick (40721000) - ISN: (30960) :: S -> (0x1) at (0x6bc3c2) of Size = (1) -- vaddr (0x6bc3c2) -- paddr (0xbc3c2) 

-- PC: (0x400b9a)- Tick (40721500) - ISN: (30976) :: S -> (0x0) at (0x7fffffffed2c) of Size = (4) -- vaddr (0x7fffffffed2c) -- paddr (0x1c1d2c) 

-- PC: (0x400bb8)- Tick (40721500) - ISN: (30981) :: L from (0x7fffffffed2c) of Size = (4) -- vaddr (0x7fffffffed2c) -- paddr (0x1c1d2c) 

-- PC: (0x400b7f)- Tick (40722000) - ISN: (30964) :: S -> (0x3) at (0x7fffffffed2c) of Size = (4) -- vaddr (0x7fffffffed2c) -- paddr (0x1c1d2c) 

-- PC: (0x400b93)- Tick (40722000) - ISN: (30974) :: S -> (0xc0) at (0x7c03e8) of Size = (8) -- vaddr (0x7c03e8) -- paddr (0x1c03e8) 

-- PC: (0x400b83)- Tick (40722500) - ISN: (30966) :: L from (0x7fffffffed2c) of Size = (4) -- vaddr (0x7fffffffed2c) -- paddr (0x1c1d2c) 

-- Sqsh -> ISN (30980)

-- ReadReq [b80:bbf] IF Hit -- Blk -> state: 7 (E) valid: 1 writable: 1 readable: 1 dirty: 0 | tag: 0x2 set: 0xe way: 0 Latency: 2 

-- ReadReq [bc0:bff] IF Hit -- Blk -> state: 7 (E) valid: 1 writable: 1 readable: 1 dirty: 0 | tag: 0x2 set: 0xf way: 0 Latency: 2 

-- Sqsh -> ISN (30970)

-- ReadReq [b40:b7f] IF Hit -- Blk -> state: 7 (E) valid: 1 writable: 1 readable: 1 dirty: 0 | tag: 0x2 set: 0xd way: 0 Latency: 2 

-- ReadReq [b80:bbf] IF Hit -- Blk -> state: 7 (E) valid: 1 writable: 1 readable: 1 dirty: 0 | tag: 0x2 set: 0xe way: 0 Latency: 2 

-- ReadReq [b40:b7f] IF Hit -- Blk -> state: 7 (E) valid: 1 writable: 1 readable: 1 dirty: 0 | tag: 0x2 set: 0xd way: 0 Latency: 2 

-- ReadReq [b80:bbf] IF Hit -- Blk -> state: 7 (E) valid: 1 writable: 1 readable: 1 dirty: 0 | tag: 0x2 set: 0xe way: 0 Latency: 2 

-- PC: (0x400b6e)- Tick (40730000) - ISN: (31011) :: L from (0x7fffffffed2c) of Size = (4) -- vaddr (0x7fffffffed2c) -- paddr (0x1c1d2c) 

-- ReadReq [b40:b7f] IF Hit -- Blk -> state: 7 (E) valid: 1 writable: 1 readable: 1 dirty: 0 | tag: 0x2 set: 0xd way: 0 Latency: 2 

-- PC: (0x400b7f)- Tick (40731000) - ISN: (31018) :: L from (0x7fffffffed2c) of Size = (4) -- vaddr (0x7fffffffed2c) -- paddr (0x1c1d2c) 

-- ReadReq [b80:bbf] IF Hit -- Blk -> state: 7 (E) valid: 1 writable: 1 readable: 1 dirty: 0 | tag: 0x2 set: 0xe way: 0 Latency: 2 

-- PC: (0x400b7b)- Tick (40731500) - ISN: (31016) :: S -> (0x1) at (0x6bc3c3) of Size = (1) -- vaddr (0x6bc3c3) -- paddr (0xbc3c3) 

-- PC: (0x400b6e)- Tick (40731500) - ISN: (31027) :: L from (0x7fffffffed2c) of Size = (4) -- vaddr (0x7fffffffed2c) -- paddr (0x1c1d2c) 

-- PC: (0x400b7f)- Tick (40732500) - ISN: (31020) :: S -> (0x4) at (0x7fffffffed2c) of Size = (4) -- vaddr (0x7fffffffed2c) -- paddr (0x1c1d2c) 

-- ReadReq [b40:b7f] IF Hit -- Blk -> state: 7 (E) valid: 1 writable: 1 readable: 1 dirty: 0 | tag: 0x2 set: 0xd way: 0 Latency: 2 

-- PC: (0x400b83)- Tick (40733000) - ISN: (31022) :: L from (0x7fffffffed2c) of Size = (4) -- vaddr (0x7fffffffed2c) -- paddr (0x1c1d2c) 

-- PC: (0x400b7b)- Tick (40733000) - ISN: (31032) :: S -> (0x1) at (0x6bc3c3) of Size = (1) -- vaddr (0x6bc3c3) -- paddr (0xbc3c3) 

-- PC: (0x400b7f)- Tick (40733000) - ISN: (31034) :: L from (0x7fffffffed2c) of Size = (4) -- vaddr (0x7fffffffed2c) -- paddr (0x1c1d2c) 

-- Sqsh -> ISN (31026)

-- ReadReq [b40:b7f] IF Hit -- Blk -> state: 7 (E) valid: 1 writable: 1 readable: 1 dirty: 0 | tag: 0x2 set: 0xd way: 0 Latency: 2 

-- ReadReq [b80:bbf] IF Hit -- Blk -> state: 7 (E) valid: 1 writable: 1 readable: 1 dirty: 0 | tag: 0x2 set: 0xe way: 0 Latency: 2 

-- ReadReq [b40:b7f] IF Hit -- Blk -> state: 7 (E) valid: 1 writable: 1 readable: 1 dirty: 0 | tag: 0x2 set: 0xd way: 0 Latency: 2 

-- ReadReq [b80:bbf] IF Hit -- Blk -> state: 7 (E) valid: 1 writable: 1 readable: 1 dirty: 0 | tag: 0x2 set: 0xe way: 0 Latency: 2 

-- PC: (0x400b6e)- Tick (40737500) - ISN: (31059) :: L from (0x7fffffffed2c) of Size = (4) -- vaddr (0x7fffffffed2c) -- paddr (0x1c1d2c) 

-- PC: (0x400b7f)- Tick (40738500) - ISN: (31066) :: L from (0x7fffffffed2c) of Size = (4) -- vaddr (0x7fffffffed2c) -- paddr (0x1c1d2c) 

-- ReadReq [b40:b7f] IF Hit -- Blk -> state: 7 (E) valid: 1 writable: 1 readable: 1 dirty: 0 | tag: 0x2 set: 0xd way: 0 Latency: 2 

-- PC: (0x400b7b)- Tick (40739000) - ISN: (31064) :: S -> (0x1) at (0x6bc3c4) of Size = (1) -- vaddr (0x6bc3c4) -- paddr (0xbc3c4) 

-- ReadReq [b80:bbf] IF Hit -- Blk -> state: 7 (E) valid: 1 writable: 1 readable: 1 dirty: 0 | tag: 0x2 set: 0xe way: 0 Latency: 2 

-- PC: (0x400b7f)- Tick (40740000) - ISN: (31068) :: S -> (0x5) at (0x7fffffffed2c) of Size = (4) -- vaddr (0x7fffffffed2c) -- paddr (0x1c1d2c) 

-- PC: (0x400b83)- Tick (40740500) - ISN: (31070) :: L from (0x7fffffffed2c) of Size = (4) -- vaddr (0x7fffffffed2c) -- paddr (0x1c1d2c) 

-- PC: (0x400b6e)- Tick (40740500) - ISN: (31075) :: L from (0x7fffffffed2c) of Size = (4) -- vaddr (0x7fffffffed2c) -- paddr (0x1c1d2c) 

-- PC: (0x400b7f)- Tick (40741000) - ISN: (31082) :: L from (0x7fffffffed2c) of Size = (4) -- vaddr (0x7fffffffed2c) -- paddr (0x1c1d2c) 

-- ReadReq [b40:b7f] IF Hit -- Blk -> state: 7 (E) valid: 1 writable: 1 readable: 1 dirty: 0 | tag: 0x2 set: 0xd way: 0 Latency: 2 

-- PC: (0x400b7b)- Tick (40742000) - ISN: (31080) :: S -> (0x1) at (0x6bc3c5) of Size = (1) -- vaddr (0x6bc3c5) -- paddr (0xbc3c5) 

-- ReadReq [b80:bbf] IF Hit -- Blk -> state: 7 (E) valid: 1 writable: 1 readable: 1 dirty: 0 | tag: 0x2 set: 0xe way: 0 Latency: 2 

-- PC: (0x400b7f)- Tick (40742500) - ISN: (31084) :: S -> (0x6) at (0x7fffffffed2c) of Size = (4) -- vaddr (0x7fffffffed2c) -- paddr (0x1c1d2c) 

-- PC: (0x400b83)- Tick (40743000) - ISN: (31086) :: L from (0x7fffffffed2c) of Size = (4) -- vaddr (0x7fffffffed2c) -- paddr (0x1c1d2c) 

-- PC: (0x400b6e)- Tick (40743000) - ISN: (31091) :: L from (0x7fffffffed2c) of Size = (4) -- vaddr (0x7fffffffed2c) -- paddr (0x1c1d2c) 

-- PC: (0x400b7f)- Tick (40743500) - ISN: (31098) :: L from (0x7fffffffed2c) of Size = (4) -- vaddr (0x7fffffffed2c) -- paddr (0x1c1d2c) 

-- ReadReq [b40:b7f] IF Hit -- Blk -> state: 7 (E) valid: 1 writable: 1 readable: 1 dirty: 0 | tag: 0x2 set: 0xd way: 0 Latency: 2 

-- PC: (0x400b7b)- Tick (40744500) - ISN: (31096) :: S -> (0x1) at (0x6bc3c6) of Size = (1) -- vaddr (0x6bc3c6) -- paddr (0xbc3c6) 

-- ReadReq [b80:bbf] IF Hit -- Blk -> state: 7 (E) valid: 1 writable: 1 readable: 1 dirty: 0 | tag: 0x2 set: 0xe way: 0 Latency: 2 

-- PC: (0x400b7f)- Tick (40745000) - ISN: (31100) :: S -> (0x7) at (0x7fffffffed2c) of Size = (4) -- vaddr (0x7fffffffed2c) -- paddr (0x1c1d2c) 

-- PC: (0x400b83)- Tick (40745500) - ISN: (31102) :: L from (0x7fffffffed2c) of Size = (4) -- vaddr (0x7fffffffed2c) -- paddr (0x1c1d2c) 

-- PC: (0x400b6e)- Tick (40745500) - ISN: (31107) :: L from (0x7fffffffed2c) of Size = (4) -- vaddr (0x7fffffffed2c) -- paddr (0x1c1d2c) 

-- PC: (0x400b7f)- Tick (40746000) - ISN: (31114) :: L from (0x7fffffffed2c) of Size = (4) -- vaddr (0x7fffffffed2c) -- paddr (0x1c1d2c) 

-- ReadReq [b40:b7f] IF Hit -- Blk -> state: 7 (E) valid: 1 writable: 1 readable: 1 dirty: 0 | tag: 0x2 set: 0xd way: 0 Latency: 2 

-- PC: (0x400b7b)- Tick (40747000) - ISN: (31112) :: S -> (0x1) at (0x6bc3c7) of Size = (1) -- vaddr (0x6bc3c7) -- paddr (0xbc3c7) 

-- ReadReq [b80:bbf] IF Hit -- Blk -> state: 7 (E) valid: 1 writable: 1 readable: 1 dirty: 0 | tag: 0x2 set: 0xe way: 0 Latency: 2 

-- PC: (0x400b7f)- Tick (40747500) - ISN: (31116) :: S -> (0x8) at (0x7fffffffed2c) of Size = (4) -- vaddr (0x7fffffffed2c) -- paddr (0x1c1d2c) 

-- PC: (0x400b83)- Tick (40748000) - ISN: (31118) :: L from (0x7fffffffed2c) of Size = (4) -- vaddr (0x7fffffffed2c) -- paddr (0x1c1d2c) 

-- PC: (0x400b6e)- Tick (40748000) - ISN: (31123) :: L from (0x7fffffffed2c) of Size = (4) -- vaddr (0x7fffffffed2c) -- paddr (0x1c1d2c) 

-- PC: (0x400b7f)- Tick (40748500) - ISN: (31130) :: L from (0x7fffffffed2c) of Size = (4) -- vaddr (0x7fffffffed2c) -- paddr (0x1c1d2c) 

-- ReadReq [b40:b7f] IF Hit -- Blk -> state: 7 (E) valid: 1 writable: 1 readable: 1 dirty: 0 | tag: 0x2 set: 0xd way: 0 Latency: 2 

-- PC: (0x400b7b)- Tick (40749500) - ISN: (31128) :: S -> (0x1) at (0x6bc3c8) of Size = (1) -- vaddr (0x6bc3c8) -- paddr (0xbc3c8) 

-- ReadReq [b80:bbf] IF Hit -- Blk -> state: 7 (E) valid: 1 writable: 1 readable: 1 dirty: 0 | tag: 0x2 set: 0xe way: 0 Latency: 2 

-- PC: (0x400b7f)- Tick (40750000) - ISN: (31132) :: S -> (0x9) at (0x7fffffffed2c) of Size = (4) -- vaddr (0x7fffffffed2c) -- paddr (0x1c1d2c) 

-- PC: (0x400b83)- Tick (40750500) - ISN: (31134) :: L from (0x7fffffffed2c) of Size = (4) -- vaddr (0x7fffffffed2c) -- paddr (0x1c1d2c) 

-- PC: (0x400b6e)- Tick (40750500) - ISN: (31139) :: L from (0x7fffffffed2c) of Size = (4) -- vaddr (0x7fffffffed2c) -- paddr (0x1c1d2c) 

-- PC: (0x400b7f)- Tick (40751000) - ISN: (31146) :: L from (0x7fffffffed2c) of Size = (4) -- vaddr (0x7fffffffed2c) -- paddr (0x1c1d2c) 

-- ReadReq [b40:b7f] IF Hit -- Blk -> state: 7 (E) valid: 1 writable: 1 readable: 1 dirty: 0 | tag: 0x2 set: 0xd way: 0 Latency: 2 

-- PC: (0x400b7b)- Tick (40752000) - ISN: (31144) :: S -> (0x1) at (0x6bc3c9) of Size = (1) -- vaddr (0x6bc3c9) -- paddr (0xbc3c9) 

-- WriteReq [1c1d2c:1c1d2f] Hit -- Blk -> state: f (M) valid: 1 writable: 1 readable: 1 dirty: 1 | tag: 0x707 set: 0x4 way: 0 Latency: 2 

-- ReadReq [b80:bbf] IF Hit -- Blk -> state: 7 (E) valid: 1 writable: 1 readable: 1 dirty: 0 | tag: 0x2 set: 0xe way: 0 Latency: 2 

-- PC: (0x400b7f)- Tick (40752500) - ISN: (31148) :: S -> (0xa) at (0x7fffffffed2c) of Size = (4) -- vaddr (0x7fffffffed2c) -- paddr (0x1c1d2c) 

-- PC: (0x400b83)- Tick (40753000) - ISN: (31150) :: L from (0x7fffffffed2c) of Size = (4) -- vaddr (0x7fffffffed2c) -- paddr (0x1c1d2c) 

-- PC: (0x400b6e)- Tick (40753000) - ISN: (31155) :: L from (0x7fffffffed2c) of Size = (4) -- vaddr (0x7fffffffed2c) -- paddr (0x1c1d2c) 

-- WriteReq [bc3c1:bc3c1] Hit -- Blk -> state: f (M) valid: 1 writable: 1 readable: 1 dirty: 1 | tag: 0x2f0 set: 0xf way: 0 Latency: 2 

-- PC: (0x400b7f)- Tick (40753500) - ISN: (31162) :: L from (0x7fffffffed2c) of Size = (4) -- vaddr (0x7fffffffed2c) -- paddr (0x1c1d2c) 

-- ReadReq [b40:b7f] IF Hit -- Blk -> state: 7 (E) valid: 1 writable: 1 readable: 1 dirty: 0 | tag: 0x2 set: 0xd way: 0 Latency: 2 

-- WriteReq [1c1d2c:1c1d2f] Hit -- Blk -> state: f (M) valid: 1 writable: 1 readable: 1 dirty: 1 | tag: 0x707 set: 0x4 way: 0 Latency: 2 

-- PC: (0x400b7b)- Tick (40754500) - ISN: (31160) :: S -> (0x1) at (0x6bc3ca) of Size = (1) -- vaddr (0x6bc3ca) -- paddr (0xbc3ca) 

-- ReadReq [b80:bbf] IF Hit -- Blk -> state: 7 (E) valid: 1 writable: 1 readable: 1 dirty: 0 | tag: 0x2 set: 0xe way: 0 Latency: 2 

-- PC: (0x400b7f)- Tick (40755000) - ISN: (31164) :: S -> (0xb) at (0x7fffffffed2c) of Size = (4) -- vaddr (0x7fffffffed2c) -- paddr (0x1c1d2c) 

-- WriteReq [bc3c2:bc3c2] Hit -- Blk -> state: f (M) valid: 1 writable: 1 readable: 1 dirty: 1 | tag: 0x2f0 set: 0xf way: 0 Latency: 2 

-- PC: (0x400b83)- Tick (40755500) - ISN: (31166) :: L from (0x7fffffffed2c) of Size = (4) -- vaddr (0x7fffffffed2c) -- paddr (0x1c1d2c) 

-- PC: (0x400b6e)- Tick (40755500) - ISN: (31171) :: L from (0x7fffffffed2c) of Size = (4) -- vaddr (0x7fffffffed2c) -- paddr (0x1c1d2c) 

-- PC: (0x400b7f)- Tick (40756000) - ISN: (31178) :: L from (0x7fffffffed2c) of Size = (4) -- vaddr (0x7fffffffed2c) -- paddr (0x1c1d2c) 

-- WriteReq [1c1d2c:1c1d2f] Hit -- Blk -> state: f (M) valid: 1 writable: 1 readable: 1 dirty: 1 | tag: 0x707 set: 0x4 way: 0 Latency: 2 

-- ReadReq [b40:b7f] IF Hit -- Blk -> state: 7 (E) valid: 1 writable: 1 readable: 1 dirty: 0 | tag: 0x2 set: 0xd way: 0 Latency: 2 

-- PC: (0x400b7b)- Tick (40757000) - ISN: (31176) :: S -> (0x1) at (0x6bc3cb) of Size = (1) -- vaddr (0x6bc3cb) -- paddr (0xbc3cb) 

-- WriteReq [bc3c3:bc3c3] Hit -- Blk -> state: f (M) valid: 1 writable: 1 readable: 1 dirty: 1 | tag: 0x2f0 set: 0xf way: 0 Latency: 2 

-- ReadReq [b80:bbf] IF Hit -- Blk -> state: 7 (E) valid: 1 writable: 1 readable: 1 dirty: 0 | tag: 0x2 set: 0xe way: 0 Latency: 2 

-- PC: (0x400b7f)- Tick (40757500) - ISN: (31180) :: S -> (0xc) at (0x7fffffffed2c) of Size = (4) -- vaddr (0x7fffffffed2c) -- paddr (0x1c1d2c) 

-- PC: (0x400b83)- Tick (40758000) - ISN: (31182) :: L from (0x7fffffffed2c) of Size = (4) -- vaddr (0x7fffffffed2c) -- paddr (0x1c1d2c) 

-- PC: (0x400b6e)- Tick (40758000) - ISN: (31187) :: L from (0x7fffffffed2c) of Size = (4) -- vaddr (0x7fffffffed2c) -- paddr (0x1c1d2c) 

-- WriteReq [1c1d2c:1c1d2f] Hit -- Blk -> state: f (M) valid: 1 writable: 1 readable: 1 dirty: 1 | tag: 0x707 set: 0x4 way: 0 Latency: 2 

-- PC: (0x400b7f)- Tick (40758500) - ISN: (31194) :: L from (0x7fffffffed2c) of Size = (4) -- vaddr (0x7fffffffed2c) -- paddr (0x1c1d2c) 

-- ReadReq [b40:b7f] IF Hit -- Blk -> state: 7 (E) valid: 1 writable: 1 readable: 1 dirty: 0 | tag: 0x2 set: 0xd way: 0 Latency: 2 

-- WriteReq [bc3c4:bc3c4] Hit -- Blk -> state: f (M) valid: 1 writable: 1 readable: 1 dirty: 1 | tag: 0x2f0 set: 0xf way: 0 Latency: 2 

-- PC: (0x400b7b)- Tick (40759500) - ISN: (31192) :: S -> (0x1) at (0x6bc3cc) of Size = (1) -- vaddr (0x6bc3cc) -- paddr (0xbc3cc) 

-- ReadReq [b80:bbf] IF Hit -- Blk -> state: 7 (E) valid: 1 writable: 1 readable: 1 dirty: 0 | tag: 0x2 set: 0xe way: 0 Latency: 2 

-- PC: (0x400b7f)- Tick (40760000) - ISN: (31196) :: S -> (0xd) at (0x7fffffffed2c) of Size = (4) -- vaddr (0x7fffffffed2c) -- paddr (0x1c1d2c) 

-- WriteReq [1c1d2c:1c1d2f] Hit -- Blk -> state: f (M) valid: 1 writable: 1 readable: 1 dirty: 1 | tag: 0x707 set: 0x4 way: 0 Latency: 2 

-- PC: (0x400b83)- Tick (40760500) - ISN: (31198) :: L from (0x7fffffffed2c) of Size = (4) -- vaddr (0x7fffffffed2c) -- paddr (0x1c1d2c) 

-- PC: (0x400b6e)- Tick (40760500) - ISN: (31203) :: L from (0x7fffffffed2c) of Size = (4) -- vaddr (0x7fffffffed2c) -- paddr (0x1c1d2c) 

-- PC: (0x400b7f)- Tick (40761000) - ISN: (31210) :: L from (0x7fffffffed2c) of Size = (4) -- vaddr (0x7fffffffed2c) -- paddr (0x1c1d2c) 

-- WriteReq [bc3c5:bc3c5] Hit -- Blk -> state: f (M) valid: 1 writable: 1 readable: 1 dirty: 1 | tag: 0x2f0 set: 0xf way: 0 Latency: 2 

-- ReadReq [b40:b7f] IF Hit -- Blk -> state: 7 (E) valid: 1 writable: 1 readable: 1 dirty: 0 | tag: 0x2 set: 0xd way: 0 Latency: 2 

-- PC: (0x400b7b)- Tick (40762000) - ISN: (31208) :: S -> (0x1) at (0x6bc3cd) of Size = (1) -- vaddr (0x6bc3cd) -- paddr (0xbc3cd) 

-- WriteReq [1c1d2c:1c1d2f] Hit -- Blk -> state: f (M) valid: 1 writable: 1 readable: 1 dirty: 1 | tag: 0x707 set: 0x4 way: 0 Latency: 2 

-- ReadReq [b80:bbf] IF Hit -- Blk -> state: 7 (E) valid: 1 writable: 1 readable: 1 dirty: 0 | tag: 0x2 set: 0xe way: 0 Latency: 2 

-- PC: (0x400b7f)- Tick (40762500) - ISN: (31212) :: S -> (0xe) at (0x7fffffffed2c) of Size = (4) -- vaddr (0x7fffffffed2c) -- paddr (0x1c1d2c) 

-- PC: (0x400b83)- Tick (40763000) - ISN: (31214) :: L from (0x7fffffffed2c) of Size = (4) -- vaddr (0x7fffffffed2c) -- paddr (0x1c1d2c) 

-- PC: (0x400b6e)- Tick (40763000) - ISN: (31219) :: L from (0x7fffffffed2c) of Size = (4) -- vaddr (0x7fffffffed2c) -- paddr (0x1c1d2c) 

-- WriteReq [bc3c6:bc3c6] Hit -- Blk -> state: f (M) valid: 1 writable: 1 readable: 1 dirty: 1 | tag: 0x2f0 set: 0xf way: 0 Latency: 2 

-- PC: (0x400b7f)- Tick (40763500) - ISN: (31226) :: L from (0x7fffffffed2c) of Size = (4) -- vaddr (0x7fffffffed2c) -- paddr (0x1c1d2c) 

-- ReadReq [b40:b7f] IF Hit -- Blk -> state: 7 (E) valid: 1 writable: 1 readable: 1 dirty: 0 | tag: 0x2 set: 0xd way: 0 Latency: 2 

-- WriteReq [1c1d2c:1c1d2f] Hit -- Blk -> state: f (M) valid: 1 writable: 1 readable: 1 dirty: 1 | tag: 0x707 set: 0x4 way: 0 Latency: 2 

-- PC: (0x400b7b)- Tick (40764500) - ISN: (31224) :: S -> (0x1) at (0x6bc3ce) of Size = (1) -- vaddr (0x6bc3ce) -- paddr (0xbc3ce) 

-- ReadReq [b80:bbf] IF Hit -- Blk -> state: 7 (E) valid: 1 writable: 1 readable: 1 dirty: 0 | tag: 0x2 set: 0xe way: 0 Latency: 2 

-- PC: (0x400b7f)- Tick (40765000) - ISN: (31228) :: S -> (0xf) at (0x7fffffffed2c) of Size = (4) -- vaddr (0x7fffffffed2c) -- paddr (0x1c1d2c) 

-- WriteReq [bc3c7:bc3c7] Hit -- Blk -> state: f (M) valid: 1 writable: 1 readable: 1 dirty: 1 | tag: 0x2f0 set: 0xf way: 0 Latency: 2 

-- PC: (0x400b83)- Tick (40765500) - ISN: (31230) :: L from (0x7fffffffed2c) of Size = (4) -- vaddr (0x7fffffffed2c) -- paddr (0x1c1d2c) 

-- PC: (0x400b6e)- Tick (40765500) - ISN: (31235) :: L from (0x7fffffffed2c) of Size = (4) -- vaddr (0x7fffffffed2c) -- paddr (0x1c1d2c) 

-- PC: (0x400b7f)- Tick (40766000) - ISN: (31242) :: L from (0x7fffffffed2c) of Size = (4) -- vaddr (0x7fffffffed2c) -- paddr (0x1c1d2c) 

-- WriteReq [1c1d2c:1c1d2f] Hit -- Blk -> state: f (M) valid: 1 writable: 1 readable: 1 dirty: 1 | tag: 0x707 set: 0x4 way: 0 Latency: 2 

-- ReadReq [b40:b7f] IF Hit -- Blk -> state: 7 (E) valid: 1 writable: 1 readable: 1 dirty: 0 | tag: 0x2 set: 0xd way: 0 Latency: 2 

-- PC: (0x400b7b)- Tick (40767000) - ISN: (31240) :: S -> (0x1) at (0x6bc3cf) of Size = (1) -- vaddr (0x6bc3cf) -- paddr (0xbc3cf) 

-- WriteReq [bc3c8:bc3c8] Hit -- Blk -> state: f (M) valid: 1 writable: 1 readable: 1 dirty: 1 | tag: 0x2f0 set: 0xf way: 0 Latency: 2 

-- ReadReq [b80:bbf] IF Hit -- Blk -> state: 7 (E) valid: 1 writable: 1 readable: 1 dirty: 0 | tag: 0x2 set: 0xe way: 0 Latency: 2 

-- PC: (0x400b7f)- Tick (40767500) - ISN: (31244) :: S -> (0x10) at (0x7fffffffed2c) of Size = (4) -- vaddr (0x7fffffffed2c) -- paddr (0x1c1d2c) 

-- PC: (0x400b83)- Tick (40768000) - ISN: (31246) :: L from (0x7fffffffed2c) of Size = (4) -- vaddr (0x7fffffffed2c) -- paddr (0x1c1d2c) 

-- PC: (0x400b6e)- Tick (40768000) - ISN: (31251) :: L from (0x7fffffffed2c) of Size = (4) -- vaddr (0x7fffffffed2c) -- paddr (0x1c1d2c) 

-- WriteReq [1c1d2c:1c1d2f] Hit -- Blk -> state: f (M) valid: 1 writable: 1 readable: 1 dirty: 1 | tag: 0x707 set: 0x4 way: 0 Latency: 2 

-- PC: (0x400b7f)- Tick (40768500) - ISN: (31258) :: L from (0x7fffffffed2c) of Size = (4) -- vaddr (0x7fffffffed2c) -- paddr (0x1c1d2c) 

-- ReadReq [b40:b7f] IF Hit -- Blk -> state: 7 (E) valid: 1 writable: 1 readable: 1 dirty: 0 | tag: 0x2 set: 0xd way: 0 Latency: 2 

-- WriteReq [bc3c9:bc3c9] Hit -- Blk -> state: f (M) valid: 1 writable: 1 readable: 1 dirty: 1 | tag: 0x2f0 set: 0xf way: 0 Latency: 2 

-- PC: (0x400b7b)- Tick (40769500) - ISN: (31256) :: S -> (0x1) at (0x6bc3d0) of Size = (1) -- vaddr (0x6bc3d0) -- paddr (0xbc3d0) 

-- ReadReq [b80:bbf] IF Hit -- Blk -> state: 7 (E) valid: 1 writable: 1 readable: 1 dirty: 0 | tag: 0x2 set: 0xe way: 0 Latency: 2 

-- PC: (0x400b7f)- Tick (40770000) - ISN: (31260) :: S -> (0x11) at (0x7fffffffed2c) of Size = (4) -- vaddr (0x7fffffffed2c) -- paddr (0x1c1d2c) 

-- WriteReq [1c1d2c:1c1d2f] Hit -- Blk -> state: f (M) valid: 1 writable: 1 readable: 1 dirty: 1 | tag: 0x707 set: 0x4 way: 0 Latency: 2 

-- PC: (0x400b83)- Tick (40770500) - ISN: (31262) :: L from (0x7fffffffed2c) of Size = (4) -- vaddr (0x7fffffffed2c) -- paddr (0x1c1d2c) 

-- PC: (0x400b6e)- Tick (40770500) - ISN: (31267) :: L from (0x7fffffffed2c) of Size = (4) -- vaddr (0x7fffffffed2c) -- paddr (0x1c1d2c) 

-- PC: (0x400b7f)- Tick (40771000) - ISN: (31274) :: L from (0x7fffffffed2c) of Size = (4) -- vaddr (0x7fffffffed2c) -- paddr (0x1c1d2c) 

-- WriteReq [bc3ca:bc3ca] Hit -- Blk -> state: f (M) valid: 1 writable: 1 readable: 1 dirty: 1 | tag: 0x2f0 set: 0xf way: 0 Latency: 2 

-- ReadReq [b40:b7f] IF Hit -- Blk -> state: 7 (E) valid: 1 writable: 1 readable: 1 dirty: 0 | tag: 0x2 set: 0xd way: 0 Latency: 2 

-- PC: (0x400b7b)- Tick (40772000) - ISN: (31272) :: S -> (0x1) at (0x6bc3d1) of Size = (1) -- vaddr (0x6bc3d1) -- paddr (0xbc3d1) 

-- WriteReq [1c1d2c:1c1d2f] Hit -- Blk -> state: f (M) valid: 1 writable: 1 readable: 1 dirty: 1 | tag: 0x707 set: 0x4 way: 0 Latency: 2 

-- ReadReq [b80:bbf] IF Hit -- Blk -> state: 7 (E) valid: 1 writable: 1 readable: 1 dirty: 0 | tag: 0x2 set: 0xe way: 0 Latency: 2 

-- PC: (0x400b7f)- Tick (40772500) - ISN: (31276) :: S -> (0x12) at (0x7fffffffed2c) of Size = (4) -- vaddr (0x7fffffffed2c) -- paddr (0x1c1d2c) 

-- PC: (0x400b83)- Tick (40773000) - ISN: (31278) :: L from (0x7fffffffed2c) of Size = (4) -- vaddr (0x7fffffffed2c) -- paddr (0x1c1d2c) 

-- PC: (0x400b6e)- Tick (40773000) - ISN: (31283) :: L from (0x7fffffffed2c) of Size = (4) -- vaddr (0x7fffffffed2c) -- paddr (0x1c1d2c) 

-- WriteReq [bc3cb:bc3cb] Hit -- Blk -> state: f (M) valid: 1 writable: 1 readable: 1 dirty: 1 | tag: 0x2f0 set: 0xf way: 0 Latency: 2 

-- PC: (0x400b7f)- Tick (40773500) - ISN: (31290) :: L from (0x7fffffffed2c) of Size = (4) -- vaddr (0x7fffffffed2c) -- paddr (0x1c1d2c) 

-- ReadReq [b40:b7f] IF Hit -- Blk -> state: 7 (E) valid: 1 writable: 1 readable: 1 dirty: 0 | tag: 0x2 set: 0xd way: 0 Latency: 2 

-- WriteReq [1c1d2c:1c1d2f] Hit -- Blk -> state: f (M) valid: 1 writable: 1 readable: 1 dirty: 1 | tag: 0x707 set: 0x4 way: 0 Latency: 2 

-- PC: (0x400b7b)- Tick (40774500) - ISN: (31288) :: S -> (0x1) at (0x6bc3d2) of Size = (1) -- vaddr (0x6bc3d2) -- paddr (0xbc3d2) 

-- ReadReq [b80:bbf] IF Hit -- Blk -> state: 7 (E) valid: 1 writable: 1 readable: 1 dirty: 0 | tag: 0x2 set: 0xe way: 0 Latency: 2 

-- PC: (0x400b7f)- Tick (40775000) - ISN: (31292) :: S -> (0x13) at (0x7fffffffed2c) of Size = (4) -- vaddr (0x7fffffffed2c) -- paddr (0x1c1d2c) 

-- WriteReq [bc3cc:bc3cc] Hit -- Blk -> state: f (M) valid: 1 writable: 1 readable: 1 dirty: 1 | tag: 0x2f0 set: 0xf way: 0 Latency: 2 

-- PC: (0x400b83)- Tick (40775500) - ISN: (31294) :: L from (0x7fffffffed2c) of Size = (4) -- vaddr (0x7fffffffed2c) -- paddr (0x1c1d2c) 

-- PC: (0x400b6e)- Tick (40775500) - ISN: (31299) :: L from (0x7fffffffed2c) of Size = (4) -- vaddr (0x7fffffffed2c) -- paddr (0x1c1d2c) 

-- PC: (0x400b7f)- Tick (40776000) - ISN: (31306) :: L from (0x7fffffffed2c) of Size = (4) -- vaddr (0x7fffffffed2c) -- paddr (0x1c1d2c) 

-- WriteReq [1c1d2c:1c1d2f] Hit -- Blk -> state: f (M) valid: 1 writable: 1 readable: 1 dirty: 1 | tag: 0x707 set: 0x4 way: 0 Latency: 2 

-- ReadReq [b40:b7f] IF Hit -- Blk -> state: 7 (E) valid: 1 writable: 1 readable: 1 dirty: 0 | tag: 0x2 set: 0xd way: 0 Latency: 2 

-- PC: (0x400b7b)- Tick (40777000) - ISN: (31304) :: S -> (0x1) at (0x6bc3d3) of Size = (1) -- vaddr (0x6bc3d3) -- paddr (0xbc3d3) 

-- WriteReq [bc3cd:bc3cd] Hit -- Blk -> state: f (M) valid: 1 writable: 1 readable: 1 dirty: 1 | tag: 0x2f0 set: 0xf way: 0 Latency: 2 

-- ReadReq [b80:bbf] IF Hit -- Blk -> state: 7 (E) valid: 1 writable: 1 readable: 1 dirty: 0 | tag: 0x2 set: 0xe way: 0 Latency: 2 

-- PC: (0x400b7f)- Tick (40777500) - ISN: (31308) :: S -> (0x14) at (0x7fffffffed2c) of Size = (4) -- vaddr (0x7fffffffed2c) -- paddr (0x1c1d2c) 

-- PC: (0x400b83)- Tick (40778000) - ISN: (31310) :: L from (0x7fffffffed2c) of Size = (4) -- vaddr (0x7fffffffed2c) -- paddr (0x1c1d2c) 

-- PC: (0x400b6e)- Tick (40778000) - ISN: (31315) :: L from (0x7fffffffed2c) of Size = (4) -- vaddr (0x7fffffffed2c) -- paddr (0x1c1d2c) 

-- WriteReq [1c1d2c:1c1d2f] Hit -- Blk -> state: f (M) valid: 1 writable: 1 readable: 1 dirty: 1 | tag: 0x707 set: 0x4 way: 0 Latency: 2 

-- PC: (0x400b7f)- Tick (40778500) - ISN: (31322) :: L from (0x7fffffffed2c) of Size = (4) -- vaddr (0x7fffffffed2c) -- paddr (0x1c1d2c) 

-- ReadReq [b40:b7f] IF Hit -- Blk -> state: 7 (E) valid: 1 writable: 1 readable: 1 dirty: 0 | tag: 0x2 set: 0xd way: 0 Latency: 2 

-- WriteReq [bc3ce:bc3ce] Hit -- Blk -> state: f (M) valid: 1 writable: 1 readable: 1 dirty: 1 | tag: 0x2f0 set: 0xf way: 0 Latency: 2 

-- PC: (0x400b7b)- Tick (40779500) - ISN: (31320) :: S -> (0x1) at (0x6bc3d4) of Size = (1) -- vaddr (0x6bc3d4) -- paddr (0xbc3d4) 

-- ReadReq [b80:bbf] IF Hit -- Blk -> state: 7 (E) valid: 1 writable: 1 readable: 1 dirty: 0 | tag: 0x2 set: 0xe way: 0 Latency: 2 

-- PC: (0x400b7f)- Tick (40780000) - ISN: (31324) :: S -> (0x15) at (0x7fffffffed2c) of Size = (4) -- vaddr (0x7fffffffed2c) -- paddr (0x1c1d2c) 

-- WriteReq [1c1d2c:1c1d2f] Hit -- Blk -> state: f (M) valid: 1 writable: 1 readable: 1 dirty: 1 | tag: 0x707 set: 0x4 way: 0 Latency: 2 

-- PC: (0x400b83)- Tick (40780500) - ISN: (31326) :: L from (0x7fffffffed2c) of Size = (4) -- vaddr (0x7fffffffed2c) -- paddr (0x1c1d2c) 

-- PC: (0x400b6e)- Tick (40780500) - ISN: (31331) :: L from (0x7fffffffed2c) of Size = (4) -- vaddr (0x7fffffffed2c) -- paddr (0x1c1d2c) 

-- PC: (0x400b7f)- Tick (40781000) - ISN: (31338) :: L from (0x7fffffffed2c) of Size = (4) -- vaddr (0x7fffffffed2c) -- paddr (0x1c1d2c) 

-- WriteReq [bc3cf:bc3cf] Hit -- Blk -> state: f (M) valid: 1 writable: 1 readable: 1 dirty: 1 | tag: 0x2f0 set: 0xf way: 0 Latency: 2 

-- ReadReq [b40:b7f] IF Hit -- Blk -> state: 7 (E) valid: 1 writable: 1 readable: 1 dirty: 0 | tag: 0x2 set: 0xd way: 0 Latency: 2 

-- PC: (0x400b7b)- Tick (40782000) - ISN: (31336) :: S -> (0x1) at (0x6bc3d5) of Size = (1) -- vaddr (0x6bc3d5) -- paddr (0xbc3d5) 

-- WriteReq [1c1d2c:1c1d2f] Hit -- Blk -> state: f (M) valid: 1 writable: 1 readable: 1 dirty: 1 | tag: 0x707 set: 0x4 way: 0 Latency: 2 

-- ReadReq [b80:bbf] IF Hit -- Blk -> state: 7 (E) valid: 1 writable: 1 readable: 1 dirty: 0 | tag: 0x2 set: 0xe way: 0 Latency: 2 

-- PC: (0x400b7f)- Tick (40782500) - ISN: (31340) :: S -> (0x16) at (0x7fffffffed2c) of Size = (4) -- vaddr (0x7fffffffed2c) -- paddr (0x1c1d2c) 

-- PC: (0x400b83)- Tick (40783000) - ISN: (31342) :: L from (0x7fffffffed2c) of Size = (4) -- vaddr (0x7fffffffed2c) -- paddr (0x1c1d2c) 

-- PC: (0x400b6e)- Tick (40783000) - ISN: (31347) :: L from (0x7fffffffed2c) of Size = (4) -- vaddr (0x7fffffffed2c) -- paddr (0x1c1d2c) 

-- WriteReq [bc3d0:bc3d0] Hit -- Blk -> state: f (M) valid: 1 writable: 1 readable: 1 dirty: 1 | tag: 0x2f0 set: 0xf way: 0 Latency: 2 

-- PC: (0x400b7f)- Tick (40783500) - ISN: (31354) :: L from (0x7fffffffed2c) of Size = (4) -- vaddr (0x7fffffffed2c) -- paddr (0x1c1d2c) 

-- ReadReq [b40:b7f] IF Hit -- Blk -> state: 7 (E) valid: 1 writable: 1 readable: 1 dirty: 0 | tag: 0x2 set: 0xd way: 0 Latency: 2 

-- WriteReq [1c1d2c:1c1d2f] Hit -- Blk -> state: f (M) valid: 1 writable: 1 readable: 1 dirty: 1 | tag: 0x707 set: 0x4 way: 0 Latency: 2 

-- PC: (0x400b7b)- Tick (40784500) - ISN: (31352) :: S -> (0x1) at (0x6bc3d6) of Size = (1) -- vaddr (0x6bc3d6) -- paddr (0xbc3d6) 

-- ReadReq [b80:bbf] IF Hit -- Blk -> state: 7 (E) valid: 1 writable: 1 readable: 1 dirty: 0 | tag: 0x2 set: 0xe way: 0 Latency: 2 

-- PC: (0x400b7f)- Tick (40785000) - ISN: (31356) :: S -> (0x17) at (0x7fffffffed2c) of Size = (4) -- vaddr (0x7fffffffed2c) -- paddr (0x1c1d2c) 

-- WriteReq [bc3d1:bc3d1] Hit -- Blk -> state: f (M) valid: 1 writable: 1 readable: 1 dirty: 1 | tag: 0x2f0 set: 0xf way: 0 Latency: 2 

-- PC: (0x400b83)- Tick (40785500) - ISN: (31358) :: L from (0x7fffffffed2c) of Size = (4) -- vaddr (0x7fffffffed2c) -- paddr (0x1c1d2c) 

-- PC: (0x400b6e)- Tick (40785500) - ISN: (31363) :: L from (0x7fffffffed2c) of Size = (4) -- vaddr (0x7fffffffed2c) -- paddr (0x1c1d2c) 

-- PC: (0x400b7f)- Tick (40786000) - ISN: (31370) :: L from (0x7fffffffed2c) of Size = (4) -- vaddr (0x7fffffffed2c) -- paddr (0x1c1d2c) 

-- WriteReq [1c1d2c:1c1d2f] Hit -- Blk -> state: f (M) valid: 1 writable: 1 readable: 1 dirty: 1 | tag: 0x707 set: 0x4 way: 0 Latency: 2 

-- ReadReq [b40:b7f] IF Hit -- Blk -> state: 7 (E) valid: 1 writable: 1 readable: 1 dirty: 0 | tag: 0x2 set: 0xd way: 0 Latency: 2 

-- PC: (0x400b7b)- Tick (40787000) - ISN: (31368) :: S -> (0x1) at (0x6bc3d7) of Size = (1) -- vaddr (0x6bc3d7) -- paddr (0xbc3d7) 

-- WriteReq [bc3d2:bc3d2] Hit -- Blk -> state: f (M) valid: 1 writable: 1 readable: 1 dirty: 1 | tag: 0x2f0 set: 0xf way: 0 Latency: 2 

-- ReadReq [b80:bbf] IF Hit -- Blk -> state: 7 (E) valid: 1 writable: 1 readable: 1 dirty: 0 | tag: 0x2 set: 0xe way: 0 Latency: 2 

-- PC: (0x400b7f)- Tick (40787500) - ISN: (31372) :: S -> (0x18) at (0x7fffffffed2c) of Size = (4) -- vaddr (0x7fffffffed2c) -- paddr (0x1c1d2c) 

-- PC: (0x400b83)- Tick (40788000) - ISN: (31374) :: L from (0x7fffffffed2c) of Size = (4) -- vaddr (0x7fffffffed2c) -- paddr (0x1c1d2c) 

-- PC: (0x400b6e)- Tick (40788000) - ISN: (31379) :: L from (0x7fffffffed2c) of Size = (4) -- vaddr (0x7fffffffed2c) -- paddr (0x1c1d2c) 

-- WriteReq [1c1d2c:1c1d2f] Hit -- Blk -> state: f (M) valid: 1 writable: 1 readable: 1 dirty: 1 | tag: 0x707 set: 0x4 way: 0 Latency: 2 

-- PC: (0x400b7f)- Tick (40788500) - ISN: (31386) :: L from (0x7fffffffed2c) of Size = (4) -- vaddr (0x7fffffffed2c) -- paddr (0x1c1d2c) 

-- ReadReq [b40:b7f] IF Hit -- Blk -> state: 7 (E) valid: 1 writable: 1 readable: 1 dirty: 0 | tag: 0x2 set: 0xd way: 0 Latency: 2 

-- WriteReq [bc3d3:bc3d3] Hit -- Blk -> state: f (M) valid: 1 writable: 1 readable: 1 dirty: 1 | tag: 0x2f0 set: 0xf way: 0 Latency: 2 

-- PC: (0x400b7b)- Tick (40789500) - ISN: (31384) :: S -> (0x1) at (0x6bc3d8) of Size = (1) -- vaddr (0x6bc3d8) -- paddr (0xbc3d8) 

-- ReadReq [b80:bbf] IF Hit -- Blk -> state: 7 (E) valid: 1 writable: 1 readable: 1 dirty: 0 | tag: 0x2 set: 0xe way: 0 Latency: 2 

-- PC: (0x400b7f)- Tick (40790000) - ISN: (31388) :: S -> (0x19) at (0x7fffffffed2c) of Size = (4) -- vaddr (0x7fffffffed2c) -- paddr (0x1c1d2c) 

-- WriteReq [1c1d2c:1c1d2f] Hit -- Blk -> state: f (M) valid: 1 writable: 1 readable: 1 dirty: 1 | tag: 0x707 set: 0x4 way: 0 Latency: 2 

-- PC: (0x400b83)- Tick (40790500) - ISN: (31390) :: L from (0x7fffffffed2c) of Size = (4) -- vaddr (0x7fffffffed2c) -- paddr (0x1c1d2c) 

-- PC: (0x400b6e)- Tick (40790500) - ISN: (31395) :: L from (0x7fffffffed2c) of Size = (4) -- vaddr (0x7fffffffed2c) -- paddr (0x1c1d2c) 

-- PC: (0x400b7f)- Tick (40791000) - ISN: (31402) :: L from (0x7fffffffed2c) of Size = (4) -- vaddr (0x7fffffffed2c) -- paddr (0x1c1d2c) 

-- WriteReq [bc3d4:bc3d4] Hit -- Blk -> state: f (M) valid: 1 writable: 1 readable: 1 dirty: 1 | tag: 0x2f0 set: 0xf way: 0 Latency: 2 

-- ReadReq [b40:b7f] IF Hit -- Blk -> state: 7 (E) valid: 1 writable: 1 readable: 1 dirty: 0 | tag: 0x2 set: 0xd way: 0 Latency: 2 

-- PC: (0x400b7b)- Tick (40792000) - ISN: (31400) :: S -> (0x1) at (0x6bc3d9) of Size = (1) -- vaddr (0x6bc3d9) -- paddr (0xbc3d9) 

-- WriteReq [1c1d2c:1c1d2f] Hit -- Blk -> state: f (M) valid: 1 writable: 1 readable: 1 dirty: 1 | tag: 0x707 set: 0x4 way: 0 Latency: 2 

-- ReadReq [b80:bbf] IF Hit -- Blk -> state: 7 (E) valid: 1 writable: 1 readable: 1 dirty: 0 | tag: 0x2 set: 0xe way: 0 Latency: 2 

-- PC: (0x400b7f)- Tick (40792500) - ISN: (31404) :: S -> (0x1a) at (0x7fffffffed2c) of Size = (4) -- vaddr (0x7fffffffed2c) -- paddr (0x1c1d2c) 

-- PC: (0x400b83)- Tick (40793000) - ISN: (31406) :: L from (0x7fffffffed2c) of Size = (4) -- vaddr (0x7fffffffed2c) -- paddr (0x1c1d2c) 

-- PC: (0x400b6e)- Tick (40793000) - ISN: (31411) :: L from (0x7fffffffed2c) of Size = (4) -- vaddr (0x7fffffffed2c) -- paddr (0x1c1d2c) 

-- WriteReq [bc3d5:bc3d5] Hit -- Blk -> state: f (M) valid: 1 writable: 1 readable: 1 dirty: 1 | tag: 0x2f0 set: 0xf way: 0 Latency: 2 

-- PC: (0x400b7f)- Tick (40793500) - ISN: (31418) :: L from (0x7fffffffed2c) of Size = (4) -- vaddr (0x7fffffffed2c) -- paddr (0x1c1d2c) 

-- ReadReq [b40:b7f] IF Hit -- Blk -> state: 7 (E) valid: 1 writable: 1 readable: 1 dirty: 0 | tag: 0x2 set: 0xd way: 0 Latency: 2 

-- WriteReq [1c1d2c:1c1d2f] Hit -- Blk -> state: f (M) valid: 1 writable: 1 readable: 1 dirty: 1 | tag: 0x707 set: 0x4 way: 0 Latency: 2 

-- PC: (0x400b7b)- Tick (40794500) - ISN: (31416) :: S -> (0x1) at (0x6bc3da) of Size = (1) -- vaddr (0x6bc3da) -- paddr (0xbc3da) 

-- ReadReq [b80:bbf] IF Hit -- Blk -> state: 7 (E) valid: 1 writable: 1 readable: 1 dirty: 0 | tag: 0x2 set: 0xe way: 0 Latency: 2 

-- PC: (0x400b7f)- Tick (40795000) - ISN: (31420) :: S -> (0x1b) at (0x7fffffffed2c) of Size = (4) -- vaddr (0x7fffffffed2c) -- paddr (0x1c1d2c) 

-- WriteReq [bc3d6:bc3d6] Hit -- Blk -> state: f (M) valid: 1 writable: 1 readable: 1 dirty: 1 | tag: 0x2f0 set: 0xf way: 0 Latency: 2 

-- PC: (0x400b83)- Tick (40795500) - ISN: (31422) :: L from (0x7fffffffed2c) of Size = (4) -- vaddr (0x7fffffffed2c) -- paddr (0x1c1d2c) 

-- PC: (0x400b6e)- Tick (40795500) - ISN: (31427) :: L from (0x7fffffffed2c) of Size = (4) -- vaddr (0x7fffffffed2c) -- paddr (0x1c1d2c) 

-- PC: (0x400b7f)- Tick (40796000) - ISN: (31434) :: L from (0x7fffffffed2c) of Size = (4) -- vaddr (0x7fffffffed2c) -- paddr (0x1c1d2c) 

-- WriteReq [1c1d2c:1c1d2f] Hit -- Blk -> state: f (M) valid: 1 writable: 1 readable: 1 dirty: 1 | tag: 0x707 set: 0x4 way: 0 Latency: 2 

-- ReadReq [b40:b7f] IF Hit -- Blk -> state: 7 (E) valid: 1 writable: 1 readable: 1 dirty: 0 | tag: 0x2 set: 0xd way: 0 Latency: 2 

-- PC: (0x400b7b)- Tick (40797000) - ISN: (31432) :: S -> (0x1) at (0x6bc3db) of Size = (1) -- vaddr (0x6bc3db) -- paddr (0xbc3db) 

-- WriteReq [bc3d7:bc3d7] Hit -- Blk -> state: f (M) valid: 1 writable: 1 readable: 1 dirty: 1 | tag: 0x2f0 set: 0xf way: 0 Latency: 2 

-- ReadReq [b80:bbf] IF Hit -- Blk -> state: 7 (E) valid: 1 writable: 1 readable: 1 dirty: 0 | tag: 0x2 set: 0xe way: 0 Latency: 2 

-- PC: (0x400b7f)- Tick (40797500) - ISN: (31436) :: S -> (0x1c) at (0x7fffffffed2c) of Size = (4) -- vaddr (0x7fffffffed2c) -- paddr (0x1c1d2c) 

-- PC: (0x400b83)- Tick (40798000) - ISN: (31438) :: L from (0x7fffffffed2c) of Size = (4) -- vaddr (0x7fffffffed2c) -- paddr (0x1c1d2c) 

-- PC: (0x400b6e)- Tick (40798000) - ISN: (31443) :: L from (0x7fffffffed2c) of Size = (4) -- vaddr (0x7fffffffed2c) -- paddr (0x1c1d2c) 

-- WriteReq [1c1d2c:1c1d2f] Hit -- Blk -> state: f (M) valid: 1 writable: 1 readable: 1 dirty: 1 | tag: 0x707 set: 0x4 way: 0 Latency: 2 

-- PC: (0x400b7f)- Tick (40798500) - ISN: (31450) :: L from (0x7fffffffed2c) of Size = (4) -- vaddr (0x7fffffffed2c) -- paddr (0x1c1d2c) 

-- ReadReq [b40:b7f] IF Hit -- Blk -> state: 7 (E) valid: 1 writable: 1 readable: 1 dirty: 0 | tag: 0x2 set: 0xd way: 0 Latency: 2 

-- WriteReq [bc3d8:bc3d8] Hit -- Blk -> state: f (M) valid: 1 writable: 1 readable: 1 dirty: 1 | tag: 0x2f0 set: 0xf way: 0 Latency: 2 

-- PC: (0x400b7b)- Tick (40799500) - ISN: (31448) :: S -> (0x1) at (0x6bc3dc) of Size = (1) -- vaddr (0x6bc3dc) -- paddr (0xbc3dc) 

-- ReadReq [b80:bbf] IF Hit -- Blk -> state: 7 (E) valid: 1 writable: 1 readable: 1 dirty: 0 | tag: 0x2 set: 0xe way: 0 Latency: 2 

-- PC: (0x400b7f)- Tick (40800000) - ISN: (31452) :: S -> (0x1d) at (0x7fffffffed2c) of Size = (4) -- vaddr (0x7fffffffed2c) -- paddr (0x1c1d2c) 

-- WriteReq [1c1d2c:1c1d2f] Hit -- Blk -> state: f (M) valid: 1 writable: 1 readable: 1 dirty: 1 | tag: 0x707 set: 0x4 way: 0 Latency: 2 

-- PC: (0x400b83)- Tick (40800500) - ISN: (31454) :: L from (0x7fffffffed2c) of Size = (4) -- vaddr (0x7fffffffed2c) -- paddr (0x1c1d2c) 

-- PC: (0x400b6e)- Tick (40800500) - ISN: (31459) :: L from (0x7fffffffed2c) of Size = (4) -- vaddr (0x7fffffffed2c) -- paddr (0x1c1d2c) 

-- PC: (0x400b7f)- Tick (40801000) - ISN: (31466) :: L from (0x7fffffffed2c) of Size = (4) -- vaddr (0x7fffffffed2c) -- paddr (0x1c1d2c) 

-- WriteReq [bc3d9:bc3d9] Hit -- Blk -> state: f (M) valid: 1 writable: 1 readable: 1 dirty: 1 | tag: 0x2f0 set: 0xf way: 0 Latency: 2 

-- ReadReq [b40:b7f] IF Hit -- Blk -> state: 7 (E) valid: 1 writable: 1 readable: 1 dirty: 0 | tag: 0x2 set: 0xd way: 0 Latency: 2 

-- PC: (0x400b7b)- Tick (40802000) - ISN: (31464) :: S -> (0x1) at (0x6bc3dd) of Size = (1) -- vaddr (0x6bc3dd) -- paddr (0xbc3dd) 

-- WriteReq [1c1d2c:1c1d2f] Hit -- Blk -> state: f (M) valid: 1 writable: 1 readable: 1 dirty: 1 | tag: 0x707 set: 0x4 way: 0 Latency: 2 

-- ReadReq [b80:bbf] IF Hit -- Blk -> state: 7 (E) valid: 1 writable: 1 readable: 1 dirty: 0 | tag: 0x2 set: 0xe way: 0 Latency: 2 

-- PC: (0x400b7f)- Tick (40802500) - ISN: (31468) :: S -> (0x1e) at (0x7fffffffed2c) of Size = (4) -- vaddr (0x7fffffffed2c) -- paddr (0x1c1d2c) 

-- PC: (0x400b83)- Tick (40803000) - ISN: (31470) :: L from (0x7fffffffed2c) of Size = (4) -- vaddr (0x7fffffffed2c) -- paddr (0x1c1d2c) 

-- PC: (0x400b6e)- Tick (40803000) - ISN: (31475) :: L from (0x7fffffffed2c) of Size = (4) -- vaddr (0x7fffffffed2c) -- paddr (0x1c1d2c) 

-- WriteReq [bc3da:bc3da] Hit -- Blk -> state: f (M) valid: 1 writable: 1 readable: 1 dirty: 1 | tag: 0x2f0 set: 0xf way: 0 Latency: 2 

-- PC: (0x400b7f)- Tick (40803500) - ISN: (31482) :: L from (0x7fffffffed2c) of Size = (4) -- vaddr (0x7fffffffed2c) -- paddr (0x1c1d2c) 

-- ReadReq [b40:b7f] IF Hit -- Blk -> state: 7 (E) valid: 1 writable: 1 readable: 1 dirty: 0 | tag: 0x2 set: 0xd way: 0 Latency: 2 

-- WriteReq [1c1d2c:1c1d2f] Hit -- Blk -> state: f (M) valid: 1 writable: 1 readable: 1 dirty: 1 | tag: 0x707 set: 0x4 way: 0 Latency: 2 

-- PC: (0x400b7b)- Tick (40804500) - ISN: (31480) :: S -> (0x1) at (0x6bc3de) of Size = (1) -- vaddr (0x6bc3de) -- paddr (0xbc3de) 

-- ReadReq [b80:bbf] IF Hit -- Blk -> state: 7 (E) valid: 1 writable: 1 readable: 1 dirty: 0 | tag: 0x2 set: 0xe way: 0 Latency: 2 

-- PC: (0x400b7f)- Tick (40805000) - ISN: (31484) :: S -> (0x1f) at (0x7fffffffed2c) of Size = (4) -- vaddr (0x7fffffffed2c) -- paddr (0x1c1d2c) 

-- WriteReq [bc3db:bc3db] Hit -- Blk -> state: f (M) valid: 1 writable: 1 readable: 1 dirty: 1 | tag: 0x2f0 set: 0xf way: 0 Latency: 2 

-- PC: (0x400b83)- Tick (40805500) - ISN: (31486) :: L from (0x7fffffffed2c) of Size = (4) -- vaddr (0x7fffffffed2c) -- paddr (0x1c1d2c) 

-- PC: (0x400b6e)- Tick (40805500) - ISN: (31491) :: L from (0x7fffffffed2c) of Size = (4) -- vaddr (0x7fffffffed2c) -- paddr (0x1c1d2c) 

-- PC: (0x400b7f)- Tick (40806000) - ISN: (31498) :: L from (0x7fffffffed2c) of Size = (4) -- vaddr (0x7fffffffed2c) -- paddr (0x1c1d2c) 

-- WriteReq [1c1d2c:1c1d2f] Hit -- Blk -> state: f (M) valid: 1 writable: 1 readable: 1 dirty: 1 | tag: 0x707 set: 0x4 way: 0 Latency: 2 

-- ReadReq [b40:b7f] IF Hit -- Blk -> state: 7 (E) valid: 1 writable: 1 readable: 1 dirty: 0 | tag: 0x2 set: 0xd way: 0 Latency: 2 

-- PC: (0x400b7b)- Tick (40807000) - ISN: (31496) :: S -> (0x1) at (0x6bc3df) of Size = (1) -- vaddr (0x6bc3df) -- paddr (0xbc3df) 

-- WriteReq [bc3dc:bc3dc] Hit -- Blk -> state: f (M) valid: 1 writable: 1 readable: 1 dirty: 1 | tag: 0x2f0 set: 0xf way: 0 Latency: 2 

-- ReadReq [b80:bbf] IF Hit -- Blk -> state: 7 (E) valid: 1 writable: 1 readable: 1 dirty: 0 | tag: 0x2 set: 0xe way: 0 Latency: 2 

-- PC: (0x400b7f)- Tick (40807500) - ISN: (31500) :: S -> (0x20) at (0x7fffffffed2c) of Size = (4) -- vaddr (0x7fffffffed2c) -- paddr (0x1c1d2c) 

-- PC: (0x400b83)- Tick (40808000) - ISN: (31502) :: L from (0x7fffffffed2c) of Size = (4) -- vaddr (0x7fffffffed2c) -- paddr (0x1c1d2c) 

-- PC: (0x400b6e)- Tick (40808000) - ISN: (31507) :: L from (0x7fffffffed2c) of Size = (4) -- vaddr (0x7fffffffed2c) -- paddr (0x1c1d2c) 

-- WriteReq [1c1d2c:1c1d2f] Hit -- Blk -> state: f (M) valid: 1 writable: 1 readable: 1 dirty: 1 | tag: 0x707 set: 0x4 way: 0 Latency: 2 

-- PC: (0x400b7f)- Tick (40808500) - ISN: (31514) :: L from (0x7fffffffed2c) of Size = (4) -- vaddr (0x7fffffffed2c) -- paddr (0x1c1d2c) 

-- ReadReq [b40:b7f] IF Hit -- Blk -> state: 7 (E) valid: 1 writable: 1 readable: 1 dirty: 0 | tag: 0x2 set: 0xd way: 0 Latency: 2 

-- WriteReq [bc3dd:bc3dd] Hit -- Blk -> state: f (M) valid: 1 writable: 1 readable: 1 dirty: 1 | tag: 0x2f0 set: 0xf way: 0 Latency: 2 

-- PC: (0x400b7b)- Tick (40809500) - ISN: (31512) :: S -> (0x1) at (0x6bc3e0) of Size = (1) -- vaddr (0x6bc3e0) -- paddr (0xbc3e0) 

-- ReadReq [b80:bbf] IF Hit -- Blk -> state: 7 (E) valid: 1 writable: 1 readable: 1 dirty: 0 | tag: 0x2 set: 0xe way: 0 Latency: 2 

-- PC: (0x400b7f)- Tick (40810000) - ISN: (31516) :: S -> (0x21) at (0x7fffffffed2c) of Size = (4) -- vaddr (0x7fffffffed2c) -- paddr (0x1c1d2c) 

-- WriteReq [1c1d2c:1c1d2f] Hit -- Blk -> state: f (M) valid: 1 writable: 1 readable: 1 dirty: 1 | tag: 0x707 set: 0x4 way: 0 Latency: 2 

-- PC: (0x400b83)- Tick (40810500) - ISN: (31518) :: L from (0x7fffffffed2c) of Size = (4) -- vaddr (0x7fffffffed2c) -- paddr (0x1c1d2c) 

-- PC: (0x400b6e)- Tick (40810500) - ISN: (31523) :: L from (0x7fffffffed2c) of Size = (4) -- vaddr (0x7fffffffed2c) -- paddr (0x1c1d2c) 

-- PC: (0x400b7f)- Tick (40811000) - ISN: (31530) :: L from (0x7fffffffed2c) of Size = (4) -- vaddr (0x7fffffffed2c) -- paddr (0x1c1d2c) 

-- WriteReq [bc3de:bc3de] Hit -- Blk -> state: f (M) valid: 1 writable: 1 readable: 1 dirty: 1 | tag: 0x2f0 set: 0xf way: 0 Latency: 2 

-- ReadReq [b40:b7f] IF Hit -- Blk -> state: 7 (E) valid: 1 writable: 1 readable: 1 dirty: 0 | tag: 0x2 set: 0xd way: 0 Latency: 2 

-- PC: (0x400b7b)- Tick (40812000) - ISN: (31528) :: S -> (0x1) at (0x6bc3e1) of Size = (1) -- vaddr (0x6bc3e1) -- paddr (0xbc3e1) 

-- WriteReq [1c1d2c:1c1d2f] Hit -- Blk -> state: f (M) valid: 1 writable: 1 readable: 1 dirty: 1 | tag: 0x707 set: 0x4 way: 0 Latency: 2 

-- ReadReq [b80:bbf] IF Hit -- Blk -> state: 7 (E) valid: 1 writable: 1 readable: 1 dirty: 0 | tag: 0x2 set: 0xe way: 0 Latency: 2 

-- PC: (0x400b7f)- Tick (40812500) - ISN: (31532) :: S -> (0x22) at (0x7fffffffed2c) of Size = (4) -- vaddr (0x7fffffffed2c) -- paddr (0x1c1d2c) 

-- PC: (0x400b83)- Tick (40813000) - ISN: (31534) :: L from (0x7fffffffed2c) of Size = (4) -- vaddr (0x7fffffffed2c) -- paddr (0x1c1d2c) 

-- PC: (0x400b6e)- Tick (40813000) - ISN: (31539) :: L from (0x7fffffffed2c) of Size = (4) -- vaddr (0x7fffffffed2c) -- paddr (0x1c1d2c) 

-- WriteReq [bc3df:bc3df] Hit -- Blk -> state: f (M) valid: 1 writable: 1 readable: 1 dirty: 1 | tag: 0x2f0 set: 0xf way: 0 Latency: 2 

-- PC: (0x400b7f)- Tick (40813500) - ISN: (31546) :: L from (0x7fffffffed2c) of Size = (4) -- vaddr (0x7fffffffed2c) -- paddr (0x1c1d2c) 

-- ReadReq [b40:b7f] IF Hit -- Blk -> state: 7 (E) valid: 1 writable: 1 readable: 1 dirty: 0 | tag: 0x2 set: 0xd way: 0 Latency: 2 

-- WriteReq [1c1d2c:1c1d2f] Hit -- Blk -> state: f (M) valid: 1 writable: 1 readable: 1 dirty: 1 | tag: 0x707 set: 0x4 way: 0 Latency: 2 

-- PC: (0x400b7b)- Tick (40814500) - ISN: (31544) :: S -> (0x1) at (0x6bc3e2) of Size = (1) -- vaddr (0x6bc3e2) -- paddr (0xbc3e2) 

-- ReadReq [b80:bbf] IF Hit -- Blk -> state: 7 (E) valid: 1 writable: 1 readable: 1 dirty: 0 | tag: 0x2 set: 0xe way: 0 Latency: 2 

-- PC: (0x400b7f)- Tick (40815000) - ISN: (31548) :: S -> (0x23) at (0x7fffffffed2c) of Size = (4) -- vaddr (0x7fffffffed2c) -- paddr (0x1c1d2c) 

-- WriteReq [bc3e0:bc3e0] Hit -- Blk -> state: f (M) valid: 1 writable: 1 readable: 1 dirty: 1 | tag: 0x2f0 set: 0xf way: 0 Latency: 2 

-- PC: (0x400b83)- Tick (40815500) - ISN: (31550) :: L from (0x7fffffffed2c) of Size = (4) -- vaddr (0x7fffffffed2c) -- paddr (0x1c1d2c) 

-- PC: (0x400b6e)- Tick (40815500) - ISN: (31555) :: L from (0x7fffffffed2c) of Size = (4) -- vaddr (0x7fffffffed2c) -- paddr (0x1c1d2c) 

-- PC: (0x400b7f)- Tick (40816000) - ISN: (31562) :: L from (0x7fffffffed2c) of Size = (4) -- vaddr (0x7fffffffed2c) -- paddr (0x1c1d2c) 

-- WriteReq [1c1d2c:1c1d2f] Hit -- Blk -> state: f (M) valid: 1 writable: 1 readable: 1 dirty: 1 | tag: 0x707 set: 0x4 way: 0 Latency: 2 

-- ReadReq [b40:b7f] IF Hit -- Blk -> state: 7 (E) valid: 1 writable: 1 readable: 1 dirty: 0 | tag: 0x2 set: 0xd way: 0 Latency: 2 

-- PC: (0x400b7b)- Tick (40817000) - ISN: (31560) :: S -> (0x1) at (0x6bc3e3) of Size = (1) -- vaddr (0x6bc3e3) -- paddr (0xbc3e3) 

-- WriteReq [bc3e1:bc3e1] Hit -- Blk -> state: f (M) valid: 1 writable: 1 readable: 1 dirty: 1 | tag: 0x2f0 set: 0xf way: 0 Latency: 2 

-- ReadReq [b80:bbf] IF Hit -- Blk -> state: 7 (E) valid: 1 writable: 1 readable: 1 dirty: 0 | tag: 0x2 set: 0xe way: 0 Latency: 2 

-- PC: (0x400b7f)- Tick (40817500) - ISN: (31564) :: S -> (0x24) at (0x7fffffffed2c) of Size = (4) -- vaddr (0x7fffffffed2c) -- paddr (0x1c1d2c) 

-- PC: (0x400b83)- Tick (40818000) - ISN: (31566) :: L from (0x7fffffffed2c) of Size = (4) -- vaddr (0x7fffffffed2c) -- paddr (0x1c1d2c) 

-- PC: (0x400b6e)- Tick (40818000) - ISN: (31571) :: L from (0x7fffffffed2c) of Size = (4) -- vaddr (0x7fffffffed2c) -- paddr (0x1c1d2c) 

-- WriteReq [1c1d2c:1c1d2f] Hit -- Blk -> state: f (M) valid: 1 writable: 1 readable: 1 dirty: 1 | tag: 0x707 set: 0x4 way: 0 Latency: 2 

-- PC: (0x400b7f)- Tick (40818500) - ISN: (31578) :: L from (0x7fffffffed2c) of Size = (4) -- vaddr (0x7fffffffed2c) -- paddr (0x1c1d2c) 

-- ReadReq [b40:b7f] IF Hit -- Blk -> state: 7 (E) valid: 1 writable: 1 readable: 1 dirty: 0 | tag: 0x2 set: 0xd way: 0 Latency: 2 

-- WriteReq [bc3e2:bc3e2] Hit -- Blk -> state: f (M) valid: 1 writable: 1 readable: 1 dirty: 1 | tag: 0x2f0 set: 0xf way: 0 Latency: 2 

-- PC: (0x400b7b)- Tick (40819500) - ISN: (31576) :: S -> (0x1) at (0x6bc3e4) of Size = (1) -- vaddr (0x6bc3e4) -- paddr (0xbc3e4) 

-- ReadReq [b80:bbf] IF Hit -- Blk -> state: 7 (E) valid: 1 writable: 1 readable: 1 dirty: 0 | tag: 0x2 set: 0xe way: 0 Latency: 2 

-- PC: (0x400b7f)- Tick (40820000) - ISN: (31580) :: S -> (0x25) at (0x7fffffffed2c) of Size = (4) -- vaddr (0x7fffffffed2c) -- paddr (0x1c1d2c) 

-- WriteReq [1c1d2c:1c1d2f] Hit -- Blk -> state: f (M) valid: 1 writable: 1 readable: 1 dirty: 1 | tag: 0x707 set: 0x4 way: 0 Latency: 2 

-- PC: (0x400b83)- Tick (40820500) - ISN: (31582) :: L from (0x7fffffffed2c) of Size = (4) -- vaddr (0x7fffffffed2c) -- paddr (0x1c1d2c) 

-- PC: (0x400b6e)- Tick (40820500) - ISN: (31587) :: L from (0x7fffffffed2c) of Size = (4) -- vaddr (0x7fffffffed2c) -- paddr (0x1c1d2c) 

-- PC: (0x400b7f)- Tick (40821000) - ISN: (31594) :: L from (0x7fffffffed2c) of Size = (4) -- vaddr (0x7fffffffed2c) -- paddr (0x1c1d2c) 

-- WriteReq [bc3e3:bc3e3] Hit -- Blk -> state: f (M) valid: 1 writable: 1 readable: 1 dirty: 1 | tag: 0x2f0 set: 0xf way: 0 Latency: 2 

-- ReadReq [b40:b7f] IF Hit -- Blk -> state: 7 (E) valid: 1 writable: 1 readable: 1 dirty: 0 | tag: 0x2 set: 0xd way: 0 Latency: 2 

-- PC: (0x400b7b)- Tick (40822000) - ISN: (31592) :: S -> (0x1) at (0x6bc3e5) of Size = (1) -- vaddr (0x6bc3e5) -- paddr (0xbc3e5) 

-- WriteReq [1c1d2c:1c1d2f] Hit -- Blk -> state: f (M) valid: 1 writable: 1 readable: 1 dirty: 1 | tag: 0x707 set: 0x4 way: 0 Latency: 2 

-- ReadReq [b80:bbf] IF Hit -- Blk -> state: 7 (E) valid: 1 writable: 1 readable: 1 dirty: 0 | tag: 0x2 set: 0xe way: 0 Latency: 2 

-- PC: (0x400b7f)- Tick (40822500) - ISN: (31596) :: S -> (0x26) at (0x7fffffffed2c) of Size = (4) -- vaddr (0x7fffffffed2c) -- paddr (0x1c1d2c) 

-- PC: (0x400b83)- Tick (40823000) - ISN: (31598) :: L from (0x7fffffffed2c) of Size = (4) -- vaddr (0x7fffffffed2c) -- paddr (0x1c1d2c) 

-- PC: (0x400b6e)- Tick (40823000) - ISN: (31603) :: L from (0x7fffffffed2c) of Size = (4) -- vaddr (0x7fffffffed2c) -- paddr (0x1c1d2c) 

-- WriteReq [bc3e4:bc3e4] Hit -- Blk -> state: f (M) valid: 1 writable: 1 readable: 1 dirty: 1 | tag: 0x2f0 set: 0xf way: 0 Latency: 2 

-- PC: (0x400b7f)- Tick (40823500) - ISN: (31610) :: L from (0x7fffffffed2c) of Size = (4) -- vaddr (0x7fffffffed2c) -- paddr (0x1c1d2c) 

-- ReadReq [b40:b7f] IF Hit -- Blk -> state: 7 (E) valid: 1 writable: 1 readable: 1 dirty: 0 | tag: 0x2 set: 0xd way: 0 Latency: 2 

-- WriteReq [1c1d2c:1c1d2f] Hit -- Blk -> state: f (M) valid: 1 writable: 1 readable: 1 dirty: 1 | tag: 0x707 set: 0x4 way: 0 Latency: 2 

-- PC: (0x400b7b)- Tick (40824500) - ISN: (31608) :: S -> (0x1) at (0x6bc3e6) of Size = (1) -- vaddr (0x6bc3e6) -- paddr (0xbc3e6) 

-- ReadReq [b80:bbf] IF Hit -- Blk -> state: 7 (E) valid: 1 writable: 1 readable: 1 dirty: 0 | tag: 0x2 set: 0xe way: 0 Latency: 2 

-- PC: (0x400b7f)- Tick (40825000) - ISN: (31612) :: S -> (0x27) at (0x7fffffffed2c) of Size = (4) -- vaddr (0x7fffffffed2c) -- paddr (0x1c1d2c) 

-- WriteReq [bc3e5:bc3e5] Hit -- Blk -> state: f (M) valid: 1 writable: 1 readable: 1 dirty: 1 | tag: 0x2f0 set: 0xf way: 0 Latency: 2 

-- PC: (0x400b83)- Tick (40825500) - ISN: (31614) :: L from (0x7fffffffed2c) of Size = (4) -- vaddr (0x7fffffffed2c) -- paddr (0x1c1d2c) 

-- PC: (0x400b6e)- Tick (40825500) - ISN: (31619) :: L from (0x7fffffffed2c) of Size = (4) -- vaddr (0x7fffffffed2c) -- paddr (0x1c1d2c) 

-- PC: (0x400b7f)- Tick (40826000) - ISN: (31626) :: L from (0x7fffffffed2c) of Size = (4) -- vaddr (0x7fffffffed2c) -- paddr (0x1c1d2c) 

-- WriteReq [1c1d2c:1c1d2f] Hit -- Blk -> state: f (M) valid: 1 writable: 1 readable: 1 dirty: 1 | tag: 0x707 set: 0x4 way: 0 Latency: 2 

-- ReadReq [b40:b7f] IF Hit -- Blk -> state: 7 (E) valid: 1 writable: 1 readable: 1 dirty: 0 | tag: 0x2 set: 0xd way: 0 Latency: 2 

-- PC: (0x400b7b)- Tick (40827000) - ISN: (31624) :: S -> (0x1) at (0x6bc3e7) of Size = (1) -- vaddr (0x6bc3e7) -- paddr (0xbc3e7) 

-- WriteReq [bc3e6:bc3e6] Hit -- Blk -> state: f (M) valid: 1 writable: 1 readable: 1 dirty: 1 | tag: 0x2f0 set: 0xf way: 0 Latency: 2 

-- ReadReq [b80:bbf] IF Hit -- Blk -> state: 7 (E) valid: 1 writable: 1 readable: 1 dirty: 0 | tag: 0x2 set: 0xe way: 0 Latency: 2 

-- PC: (0x400b7f)- Tick (40827500) - ISN: (31628) :: S -> (0x28) at (0x7fffffffed2c) of Size = (4) -- vaddr (0x7fffffffed2c) -- paddr (0x1c1d2c) 

-- PC: (0x400b83)- Tick (40828000) - ISN: (31630) :: L from (0x7fffffffed2c) of Size = (4) -- vaddr (0x7fffffffed2c) -- paddr (0x1c1d2c) 

-- PC: (0x400b6e)- Tick (40828000) - ISN: (31635) :: L from (0x7fffffffed2c) of Size = (4) -- vaddr (0x7fffffffed2c) -- paddr (0x1c1d2c) 

-- WriteReq [1c1d2c:1c1d2f] Hit -- Blk -> state: f (M) valid: 1 writable: 1 readable: 1 dirty: 1 | tag: 0x707 set: 0x4 way: 0 Latency: 2 

-- PC: (0x400b7f)- Tick (40828500) - ISN: (31642) :: L from (0x7fffffffed2c) of Size = (4) -- vaddr (0x7fffffffed2c) -- paddr (0x1c1d2c) 

-- ReadReq [b40:b7f] IF Hit -- Blk -> state: 7 (E) valid: 1 writable: 1 readable: 1 dirty: 0 | tag: 0x2 set: 0xd way: 0 Latency: 2 

-- WriteReq [bc3e7:bc3e7] Hit -- Blk -> state: f (M) valid: 1 writable: 1 readable: 1 dirty: 1 | tag: 0x2f0 set: 0xf way: 0 Latency: 2 

-- PC: (0x400b7b)- Tick (40829500) - ISN: (31640) :: S -> (0x1) at (0x6bc3e8) of Size = (1) -- vaddr (0x6bc3e8) -- paddr (0xbc3e8) 

-- ReadReq [b80:bbf] IF Hit -- Blk -> state: 7 (E) valid: 1 writable: 1 readable: 1 dirty: 0 | tag: 0x2 set: 0xe way: 0 Latency: 2 

-- PC: (0x400b7f)- Tick (40830000) - ISN: (31644) :: S -> (0x29) at (0x7fffffffed2c) of Size = (4) -- vaddr (0x7fffffffed2c) -- paddr (0x1c1d2c) 

-- WriteReq [1c1d2c:1c1d2f] Hit -- Blk -> state: f (M) valid: 1 writable: 1 readable: 1 dirty: 1 | tag: 0x707 set: 0x4 way: 0 Latency: 2 

-- PC: (0x400b83)- Tick (40830500) - ISN: (31646) :: L from (0x7fffffffed2c) of Size = (4) -- vaddr (0x7fffffffed2c) -- paddr (0x1c1d2c) 

-- PC: (0x400b6e)- Tick (40830500) - ISN: (31651) :: L from (0x7fffffffed2c) of Size = (4) -- vaddr (0x7fffffffed2c) -- paddr (0x1c1d2c) 

-- PC: (0x400b7f)- Tick (40831000) - ISN: (31658) :: L from (0x7fffffffed2c) of Size = (4) -- vaddr (0x7fffffffed2c) -- paddr (0x1c1d2c) 

-- ReadReq [b40:b7f] IF Hit -- Blk -> state: 7 (E) valid: 1 writable: 1 readable: 1 dirty: 0 | tag: 0x2 set: 0xd way: 0 Latency: 2 

-- WriteReq [bc3e8:bc3e8] Hit -- Blk -> state: f (M) valid: 1 writable: 1 readable: 1 dirty: 1 | tag: 0x2f0 set: 0xf way: 0 Latency: 2 

-- PC: (0x400b7b)- Tick (40832000) - ISN: (31656) :: S -> (0x1) at (0x6bc3e9) of Size = (1) -- vaddr (0x6bc3e9) -- paddr (0xbc3e9) 

-- ReadReq [b80:bbf] IF Hit -- Blk -> state: 7 (E) valid: 1 writable: 1 readable: 1 dirty: 0 | tag: 0x2 set: 0xe way: 0 Latency: 2 

-- PC: (0x400b7f)- Tick (40832500) - ISN: (31660) :: S -> (0x2a) at (0x7fffffffed2c) of Size = (4) -- vaddr (0x7fffffffed2c) -- paddr (0x1c1d2c) 

-- WriteReq [1c1d2c:1c1d2f] Hit -- Blk -> state: f (M) valid: 1 writable: 1 readable: 1 dirty: 1 | tag: 0x707 set: 0x4 way: 0 Latency: 2 

-- PC: (0x400b83)- Tick (40833000) - ISN: (31662) :: L from (0x7fffffffed2c) of Size = (4) -- vaddr (0x7fffffffed2c) -- paddr (0x1c1d2c) 

-- PC: (0x400b6e)- Tick (40833000) - ISN: (31667) :: L from (0x7fffffffed2c) of Size = (4) -- vaddr (0x7fffffffed2c) -- paddr (0x1c1d2c) 

-- PC: (0x400b7f)- Tick (40833500) - ISN: (31674) :: L from (0x7fffffffed2c) of Size = (4) -- vaddr (0x7fffffffed2c) -- paddr (0x1c1d2c) 

-- ReadReq [b40:b7f] IF Hit -- Blk -> state: 7 (E) valid: 1 writable: 1 readable: 1 dirty: 0 | tag: 0x2 set: 0xd way: 0 Latency: 2 

-- WriteReq [bc3e9:bc3e9] Hit -- Blk -> state: f (M) valid: 1 writable: 1 readable: 1 dirty: 1 | tag: 0x2f0 set: 0xf way: 0 Latency: 2 

-- PC: (0x400b7b)- Tick (40834500) - ISN: (31672) :: S -> (0x1) at (0x6bc3ea) of Size = (1) -- vaddr (0x6bc3ea) -- paddr (0xbc3ea) 

-- ReadReq [b80:bbf] IF Hit -- Blk -> state: 7 (E) valid: 1 writable: 1 readable: 1 dirty: 0 | tag: 0x2 set: 0xe way: 0 Latency: 2 

-- PC: (0x400b7f)- Tick (40835000) - ISN: (31676) :: S -> (0x2b) at (0x7fffffffed2c) of Size = (4) -- vaddr (0x7fffffffed2c) -- paddr (0x1c1d2c) 

-- WriteReq [1c1d2c:1c1d2f] Hit -- Blk -> state: f (M) valid: 1 writable: 1 readable: 1 dirty: 1 | tag: 0x707 set: 0x4 way: 0 Latency: 2 

-- PC: (0x400b83)- Tick (40835500) - ISN: (31678) :: L from (0x7fffffffed2c) of Size = (4) -- vaddr (0x7fffffffed2c) -- paddr (0x1c1d2c) 

-- PC: (0x400b6e)- Tick (40835500) - ISN: (31683) :: L from (0x7fffffffed2c) of Size = (4) -- vaddr (0x7fffffffed2c) -- paddr (0x1c1d2c) 

-- PC: (0x400b7f)- Tick (40836000) - ISN: (31690) :: L from (0x7fffffffed2c) of Size = (4) -- vaddr (0x7fffffffed2c) -- paddr (0x1c1d2c) 

-- ReadReq [b40:b7f] IF Hit -- Blk -> state: 7 (E) valid: 1 writable: 1 readable: 1 dirty: 0 | tag: 0x2 set: 0xd way: 0 Latency: 2 

-- WriteReq [bc3ea:bc3ea] Hit -- Blk -> state: f (M) valid: 1 writable: 1 readable: 1 dirty: 1 | tag: 0x2f0 set: 0xf way: 0 Latency: 2 

-- PC: (0x400b7b)- Tick (40837000) - ISN: (31688) :: S -> (0x1) at (0x6bc3eb) of Size = (1) -- vaddr (0x6bc3eb) -- paddr (0xbc3eb) 

-- ReadReq [b80:bbf] IF Hit -- Blk -> state: 7 (E) valid: 1 writable: 1 readable: 1 dirty: 0 | tag: 0x2 set: 0xe way: 0 Latency: 2 

-- PC: (0x400b7f)- Tick (40837500) - ISN: (31692) :: S -> (0x2c) at (0x7fffffffed2c) of Size = (4) -- vaddr (0x7fffffffed2c) -- paddr (0x1c1d2c) 

-- WriteReq [1c1d2c:1c1d2f] Hit -- Blk -> state: f (M) valid: 1 writable: 1 readable: 1 dirty: 1 | tag: 0x707 set: 0x4 way: 0 Latency: 2 

-- PC: (0x400b83)- Tick (40838000) - ISN: (31694) :: L from (0x7fffffffed2c) of Size = (4) -- vaddr (0x7fffffffed2c) -- paddr (0x1c1d2c) 

-- PC: (0x400b6e)- Tick (40838000) - ISN: (31699) :: L from (0x7fffffffed2c) of Size = (4) -- vaddr (0x7fffffffed2c) -- paddr (0x1c1d2c) 

-- PC: (0x400b7f)- Tick (40838500) - ISN: (31706) :: L from (0x7fffffffed2c) of Size = (4) -- vaddr (0x7fffffffed2c) -- paddr (0x1c1d2c) 

-- ReadReq [b40:b7f] IF Hit -- Blk -> state: 7 (E) valid: 1 writable: 1 readable: 1 dirty: 0 | tag: 0x2 set: 0xd way: 0 Latency: 2 

-- WriteReq [bc3eb:bc3eb] Hit -- Blk -> state: f (M) valid: 1 writable: 1 readable: 1 dirty: 1 | tag: 0x2f0 set: 0xf way: 0 Latency: 2 

-- PC: (0x400b7b)- Tick (40839500) - ISN: (31704) :: S -> (0x1) at (0x6bc3ec) of Size = (1) -- vaddr (0x6bc3ec) -- paddr (0xbc3ec) 

-- ReadReq [b80:bbf] IF Hit -- Blk -> state: 7 (E) valid: 1 writable: 1 readable: 1 dirty: 0 | tag: 0x2 set: 0xe way: 0 Latency: 2 

-- PC: (0x400b7f)- Tick (40840000) - ISN: (31708) :: S -> (0x2d) at (0x7fffffffed2c) of Size = (4) -- vaddr (0x7fffffffed2c) -- paddr (0x1c1d2c) 

-- WriteReq [1c1d2c:1c1d2f] Hit -- Blk -> state: f (M) valid: 1 writable: 1 readable: 1 dirty: 1 | tag: 0x707 set: 0x4 way: 0 Latency: 2 

-- PC: (0x400b83)- Tick (40840500) - ISN: (31710) :: L from (0x7fffffffed2c) of Size = (4) -- vaddr (0x7fffffffed2c) -- paddr (0x1c1d2c) 

-- PC: (0x400b6e)- Tick (40840500) - ISN: (31715) :: L from (0x7fffffffed2c) of Size = (4) -- vaddr (0x7fffffffed2c) -- paddr (0x1c1d2c) 

-- PC: (0x400b7f)- Tick (40841000) - ISN: (31722) :: L from (0x7fffffffed2c) of Size = (4) -- vaddr (0x7fffffffed2c) -- paddr (0x1c1d2c) 

-- ReadReq [b40:b7f] IF Hit -- Blk -> state: 7 (E) valid: 1 writable: 1 readable: 1 dirty: 0 | tag: 0x2 set: 0xd way: 0 Latency: 2 

-- WriteReq [bc3ec:bc3ec] Hit -- Blk -> state: f (M) valid: 1 writable: 1 readable: 1 dirty: 1 | tag: 0x2f0 set: 0xf way: 0 Latency: 2 

-- PC: (0x400b7b)- Tick (40842000) - ISN: (31720) :: S -> (0x1) at (0x6bc3ed) of Size = (1) -- vaddr (0x6bc3ed) -- paddr (0xbc3ed) 

-- ReadReq [b80:bbf] IF Hit -- Blk -> state: 7 (E) valid: 1 writable: 1 readable: 1 dirty: 0 | tag: 0x2 set: 0xe way: 0 Latency: 2 

-- PC: (0x400b7f)- Tick (40842500) - ISN: (31724) :: S -> (0x2e) at (0x7fffffffed2c) of Size = (4) -- vaddr (0x7fffffffed2c) -- paddr (0x1c1d2c) 

-- WriteReq [1c1d2c:1c1d2f] Hit -- Blk -> state: f (M) valid: 1 writable: 1 readable: 1 dirty: 1 | tag: 0x707 set: 0x4 way: 0 Latency: 2 

-- PC: (0x400b83)- Tick (40843000) - ISN: (31726) :: L from (0x7fffffffed2c) of Size = (4) -- vaddr (0x7fffffffed2c) -- paddr (0x1c1d2c) 

-- PC: (0x400b6e)- Tick (40843000) - ISN: (31731) :: L from (0x7fffffffed2c) of Size = (4) -- vaddr (0x7fffffffed2c) -- paddr (0x1c1d2c) 

-- PC: (0x400b7f)- Tick (40843500) - ISN: (31738) :: L from (0x7fffffffed2c) of Size = (4) -- vaddr (0x7fffffffed2c) -- paddr (0x1c1d2c) 

-- ReadReq [b40:b7f] IF Hit -- Blk -> state: 7 (E) valid: 1 writable: 1 readable: 1 dirty: 0 | tag: 0x2 set: 0xd way: 0 Latency: 2 

-- WriteReq [bc3ed:bc3ed] Hit -- Blk -> state: f (M) valid: 1 writable: 1 readable: 1 dirty: 1 | tag: 0x2f0 set: 0xf way: 0 Latency: 2 

-- PC: (0x400b7b)- Tick (40844500) - ISN: (31736) :: S -> (0x1) at (0x6bc3ee) of Size = (1) -- vaddr (0x6bc3ee) -- paddr (0xbc3ee) 

-- ReadReq [b80:bbf] IF Hit -- Blk -> state: 7 (E) valid: 1 writable: 1 readable: 1 dirty: 0 | tag: 0x2 set: 0xe way: 0 Latency: 2 

-- PC: (0x400b7f)- Tick (40845000) - ISN: (31740) :: S -> (0x2f) at (0x7fffffffed2c) of Size = (4) -- vaddr (0x7fffffffed2c) -- paddr (0x1c1d2c) 

-- WriteReq [1c1d2c:1c1d2f] Hit -- Blk -> state: f (M) valid: 1 writable: 1 readable: 1 dirty: 1 | tag: 0x707 set: 0x4 way: 0 Latency: 2 

-- PC: (0x400b83)- Tick (40845500) - ISN: (31742) :: L from (0x7fffffffed2c) of Size = (4) -- vaddr (0x7fffffffed2c) -- paddr (0x1c1d2c) 

-- PC: (0x400b6e)- Tick (40845500) - ISN: (31747) :: L from (0x7fffffffed2c) of Size = (4) -- vaddr (0x7fffffffed2c) -- paddr (0x1c1d2c) 

-- PC: (0x400b7f)- Tick (40846000) - ISN: (31754) :: L from (0x7fffffffed2c) of Size = (4) -- vaddr (0x7fffffffed2c) -- paddr (0x1c1d2c) 

-- ReadReq [b40:b7f] IF Hit -- Blk -> state: 7 (E) valid: 1 writable: 1 readable: 1 dirty: 0 | tag: 0x2 set: 0xd way: 0 Latency: 2 

-- WriteReq [bc3ee:bc3ee] Hit -- Blk -> state: f (M) valid: 1 writable: 1 readable: 1 dirty: 1 | tag: 0x2f0 set: 0xf way: 0 Latency: 2 

-- PC: (0x400b7b)- Tick (40847000) - ISN: (31752) :: S -> (0x1) at (0x6bc3ef) of Size = (1) -- vaddr (0x6bc3ef) -- paddr (0xbc3ef) 

-- ReadReq [b80:bbf] IF Hit -- Blk -> state: 7 (E) valid: 1 writable: 1 readable: 1 dirty: 0 | tag: 0x2 set: 0xe way: 0 Latency: 2 

-- PC: (0x400b7f)- Tick (40847500) - ISN: (31756) :: S -> (0x30) at (0x7fffffffed2c) of Size = (4) -- vaddr (0x7fffffffed2c) -- paddr (0x1c1d2c) 

-- WriteReq [1c1d2c:1c1d2f] Hit -- Blk -> state: f (M) valid: 1 writable: 1 readable: 1 dirty: 1 | tag: 0x707 set: 0x4 way: 0 Latency: 2 

-- PC: (0x400b83)- Tick (40848000) - ISN: (31758) :: L from (0x7fffffffed2c) of Size = (4) -- vaddr (0x7fffffffed2c) -- paddr (0x1c1d2c) 

-- PC: (0x400b6e)- Tick (40848000) - ISN: (31763) :: L from (0x7fffffffed2c) of Size = (4) -- vaddr (0x7fffffffed2c) -- paddr (0x1c1d2c) 

-- PC: (0x400b7f)- Tick (40848500) - ISN: (31770) :: L from (0x7fffffffed2c) of Size = (4) -- vaddr (0x7fffffffed2c) -- paddr (0x1c1d2c) 

-- ReadReq [b40:b7f] IF Hit -- Blk -> state: 7 (E) valid: 1 writable: 1 readable: 1 dirty: 0 | tag: 0x2 set: 0xd way: 0 Latency: 2 

-- WriteReq [bc3ef:bc3ef] Hit -- Blk -> state: f (M) valid: 1 writable: 1 readable: 1 dirty: 1 | tag: 0x2f0 set: 0xf way: 0 Latency: 2 

-- PC: (0x400b7b)- Tick (40849500) - ISN: (31768) :: S -> (0x1) at (0x6bc3f0) of Size = (1) -- vaddr (0x6bc3f0) -- paddr (0xbc3f0) 

-- ReadReq [b80:bbf] IF Hit -- Blk -> state: 7 (E) valid: 1 writable: 1 readable: 1 dirty: 0 | tag: 0x2 set: 0xe way: 0 Latency: 2 

-- PC: (0x400b7f)- Tick (40850000) - ISN: (31772) :: S -> (0x31) at (0x7fffffffed2c) of Size = (4) -- vaddr (0x7fffffffed2c) -- paddr (0x1c1d2c) 

-- WriteReq [1c1d2c:1c1d2f] Hit -- Blk -> state: f (M) valid: 1 writable: 1 readable: 1 dirty: 1 | tag: 0x707 set: 0x4 way: 0 Latency: 2 

-- PC: (0x400b83)- Tick (40850500) - ISN: (31774) :: L from (0x7fffffffed2c) of Size = (4) -- vaddr (0x7fffffffed2c) -- paddr (0x1c1d2c) 

-- PC: (0x400b6e)- Tick (40850500) - ISN: (31779) :: L from (0x7fffffffed2c) of Size = (4) -- vaddr (0x7fffffffed2c) -- paddr (0x1c1d2c) 

-- PC: (0x400b7f)- Tick (40851000) - ISN: (31786) :: L from (0x7fffffffed2c) of Size = (4) -- vaddr (0x7fffffffed2c) -- paddr (0x1c1d2c) 

-- ReadReq [b40:b7f] IF Hit -- Blk -> state: 7 (E) valid: 1 writable: 1 readable: 1 dirty: 0 | tag: 0x2 set: 0xd way: 0 Latency: 2 

-- WriteReq [bc3f0:bc3f0] Hit -- Blk -> state: f (M) valid: 1 writable: 1 readable: 1 dirty: 1 | tag: 0x2f0 set: 0xf way: 0 Latency: 2 

-- PC: (0x400b7b)- Tick (40852000) - ISN: (31784) :: S -> (0x1) at (0x6bc3f1) of Size = (1) -- vaddr (0x6bc3f1) -- paddr (0xbc3f1) 

-- ReadReq [b80:bbf] IF Hit -- Blk -> state: 7 (E) valid: 1 writable: 1 readable: 1 dirty: 0 | tag: 0x2 set: 0xe way: 0 Latency: 2 

-- PC: (0x400b7f)- Tick (40852500) - ISN: (31788) :: S -> (0x32) at (0x7fffffffed2c) of Size = (4) -- vaddr (0x7fffffffed2c) -- paddr (0x1c1d2c) 

-- WriteReq [1c1d2c:1c1d2f] Hit -- Blk -> state: f (M) valid: 1 writable: 1 readable: 1 dirty: 1 | tag: 0x707 set: 0x4 way: 0 Latency: 2 

-- PC: (0x400b83)- Tick (40853000) - ISN: (31790) :: L from (0x7fffffffed2c) of Size = (4) -- vaddr (0x7fffffffed2c) -- paddr (0x1c1d2c) 

-- PC: (0x400b6e)- Tick (40853000) - ISN: (31795) :: L from (0x7fffffffed2c) of Size = (4) -- vaddr (0x7fffffffed2c) -- paddr (0x1c1d2c) 

-- PC: (0x400b7f)- Tick (40853500) - ISN: (31802) :: L from (0x7fffffffed2c) of Size = (4) -- vaddr (0x7fffffffed2c) -- paddr (0x1c1d2c) 

-- ReadReq [b40:b7f] IF Hit -- Blk -> state: 7 (E) valid: 1 writable: 1 readable: 1 dirty: 0 | tag: 0x2 set: 0xd way: 0 Latency: 2 

-- WriteReq [bc3f1:bc3f1] Hit -- Blk -> state: f (M) valid: 1 writable: 1 readable: 1 dirty: 1 | tag: 0x2f0 set: 0xf way: 0 Latency: 2 

-- PC: (0x400b7b)- Tick (40854500) - ISN: (31800) :: S -> (0x1) at (0x6bc3f2) of Size = (1) -- vaddr (0x6bc3f2) -- paddr (0xbc3f2) 

-- ReadReq [b80:bbf] IF Hit -- Blk -> state: 7 (E) valid: 1 writable: 1 readable: 1 dirty: 0 | tag: 0x2 set: 0xe way: 0 Latency: 2 

-- PC: (0x400b7f)- Tick (40855000) - ISN: (31804) :: S -> (0x33) at (0x7fffffffed2c) of Size = (4) -- vaddr (0x7fffffffed2c) -- paddr (0x1c1d2c) 

-- WriteReq [1c1d2c:1c1d2f] Hit -- Blk -> state: f (M) valid: 1 writable: 1 readable: 1 dirty: 1 | tag: 0x707 set: 0x4 way: 0 Latency: 2 

-- PC: (0x400b83)- Tick (40855500) - ISN: (31806) :: L from (0x7fffffffed2c) of Size = (4) -- vaddr (0x7fffffffed2c) -- paddr (0x1c1d2c) 

-- PC: (0x400b6e)- Tick (40855500) - ISN: (31811) :: L from (0x7fffffffed2c) of Size = (4) -- vaddr (0x7fffffffed2c) -- paddr (0x1c1d2c) 

-- PC: (0x400b7f)- Tick (40856000) - ISN: (31818) :: L from (0x7fffffffed2c) of Size = (4) -- vaddr (0x7fffffffed2c) -- paddr (0x1c1d2c) 

-- ReadReq [b40:b7f] IF Hit -- Blk -> state: 7 (E) valid: 1 writable: 1 readable: 1 dirty: 0 | tag: 0x2 set: 0xd way: 0 Latency: 2 

-- WriteReq [bc3f2:bc3f2] Hit -- Blk -> state: f (M) valid: 1 writable: 1 readable: 1 dirty: 1 | tag: 0x2f0 set: 0xf way: 0 Latency: 2 

-- PC: (0x400b7b)- Tick (40857000) - ISN: (31816) :: S -> (0x1) at (0x6bc3f3) of Size = (1) -- vaddr (0x6bc3f3) -- paddr (0xbc3f3) 

-- ReadReq [b80:bbf] IF Hit -- Blk -> state: 7 (E) valid: 1 writable: 1 readable: 1 dirty: 0 | tag: 0x2 set: 0xe way: 0 Latency: 2 

-- PC: (0x400b7f)- Tick (40857500) - ISN: (31820) :: S -> (0x34) at (0x7fffffffed2c) of Size = (4) -- vaddr (0x7fffffffed2c) -- paddr (0x1c1d2c) 

-- WriteReq [1c1d2c:1c1d2f] Hit -- Blk -> state: f (M) valid: 1 writable: 1 readable: 1 dirty: 1 | tag: 0x707 set: 0x4 way: 0 Latency: 2 

-- PC: (0x400b83)- Tick (40858000) - ISN: (31822) :: L from (0x7fffffffed2c) of Size = (4) -- vaddr (0x7fffffffed2c) -- paddr (0x1c1d2c) 

-- PC: (0x400b6e)- Tick (40858000) - ISN: (31827) :: L from (0x7fffffffed2c) of Size = (4) -- vaddr (0x7fffffffed2c) -- paddr (0x1c1d2c) 

-- PC: (0x400b7f)- Tick (40858500) - ISN: (31834) :: L from (0x7fffffffed2c) of Size = (4) -- vaddr (0x7fffffffed2c) -- paddr (0x1c1d2c) 

-- ReadReq [b40:b7f] IF Hit -- Blk -> state: 7 (E) valid: 1 writable: 1 readable: 1 dirty: 0 | tag: 0x2 set: 0xd way: 0 Latency: 2 

-- WriteReq [bc3f3:bc3f3] Hit -- Blk -> state: f (M) valid: 1 writable: 1 readable: 1 dirty: 1 | tag: 0x2f0 set: 0xf way: 0 Latency: 2 

-- PC: (0x400b7b)- Tick (40859500) - ISN: (31832) :: S -> (0x1) at (0x6bc3f4) of Size = (1) -- vaddr (0x6bc3f4) -- paddr (0xbc3f4) 

-- ReadReq [b80:bbf] IF Hit -- Blk -> state: 7 (E) valid: 1 writable: 1 readable: 1 dirty: 0 | tag: 0x2 set: 0xe way: 0 Latency: 2 

-- PC: (0x400b7f)- Tick (40860000) - ISN: (31836) :: S -> (0x35) at (0x7fffffffed2c) of Size = (4) -- vaddr (0x7fffffffed2c) -- paddr (0x1c1d2c) 

-- WriteReq [1c1d2c:1c1d2f] Hit -- Blk -> state: f (M) valid: 1 writable: 1 readable: 1 dirty: 1 | tag: 0x707 set: 0x4 way: 0 Latency: 2 

-- PC: (0x400b83)- Tick (40860500) - ISN: (31838) :: L from (0x7fffffffed2c) of Size = (4) -- vaddr (0x7fffffffed2c) -- paddr (0x1c1d2c) 

-- PC: (0x400b6e)- Tick (40860500) - ISN: (31843) :: L from (0x7fffffffed2c) of Size = (4) -- vaddr (0x7fffffffed2c) -- paddr (0x1c1d2c) 

-- PC: (0x400b7f)- Tick (40861000) - ISN: (31850) :: L from (0x7fffffffed2c) of Size = (4) -- vaddr (0x7fffffffed2c) -- paddr (0x1c1d2c) 

-- ReadReq [b40:b7f] IF Hit -- Blk -> state: 7 (E) valid: 1 writable: 1 readable: 1 dirty: 0 | tag: 0x2 set: 0xd way: 0 Latency: 2 

-- WriteReq [bc3f4:bc3f4] Hit -- Blk -> state: f (M) valid: 1 writable: 1 readable: 1 dirty: 1 | tag: 0x2f0 set: 0xf way: 0 Latency: 2 

-- PC: (0x400b7b)- Tick (40862000) - ISN: (31848) :: S -> (0x1) at (0x6bc3f5) of Size = (1) -- vaddr (0x6bc3f5) -- paddr (0xbc3f5) 

-- ReadReq [b80:bbf] IF Hit -- Blk -> state: 7 (E) valid: 1 writable: 1 readable: 1 dirty: 0 | tag: 0x2 set: 0xe way: 0 Latency: 2 

-- PC: (0x400b7f)- Tick (40862500) - ISN: (31852) :: S -> (0x36) at (0x7fffffffed2c) of Size = (4) -- vaddr (0x7fffffffed2c) -- paddr (0x1c1d2c) 

-- WriteReq [1c1d2c:1c1d2f] Hit -- Blk -> state: f (M) valid: 1 writable: 1 readable: 1 dirty: 1 | tag: 0x707 set: 0x4 way: 0 Latency: 2 

-- PC: (0x400b83)- Tick (40863000) - ISN: (31854) :: L from (0x7fffffffed2c) of Size = (4) -- vaddr (0x7fffffffed2c) -- paddr (0x1c1d2c) 

-- PC: (0x400b6e)- Tick (40863000) - ISN: (31859) :: L from (0x7fffffffed2c) of Size = (4) -- vaddr (0x7fffffffed2c) -- paddr (0x1c1d2c) 

-- PC: (0x400b7f)- Tick (40863500) - ISN: (31866) :: L from (0x7fffffffed2c) of Size = (4) -- vaddr (0x7fffffffed2c) -- paddr (0x1c1d2c) 

-- ReadReq [b40:b7f] IF Hit -- Blk -> state: 7 (E) valid: 1 writable: 1 readable: 1 dirty: 0 | tag: 0x2 set: 0xd way: 0 Latency: 2 

-- WriteReq [bc3f5:bc3f5] Hit -- Blk -> state: f (M) valid: 1 writable: 1 readable: 1 dirty: 1 | tag: 0x2f0 set: 0xf way: 0 Latency: 2 

-- PC: (0x400b7b)- Tick (40864500) - ISN: (31864) :: S -> (0x1) at (0x6bc3f6) of Size = (1) -- vaddr (0x6bc3f6) -- paddr (0xbc3f6) 

-- ReadReq [b80:bbf] IF Hit -- Blk -> state: 7 (E) valid: 1 writable: 1 readable: 1 dirty: 0 | tag: 0x2 set: 0xe way: 0 Latency: 2 

-- PC: (0x400b7f)- Tick (40865000) - ISN: (31868) :: S -> (0x37) at (0x7fffffffed2c) of Size = (4) -- vaddr (0x7fffffffed2c) -- paddr (0x1c1d2c) 

-- WriteReq [1c1d2c:1c1d2f] Hit -- Blk -> state: f (M) valid: 1 writable: 1 readable: 1 dirty: 1 | tag: 0x707 set: 0x4 way: 0 Latency: 2 

-- PC: (0x400b83)- Tick (40865500) - ISN: (31870) :: L from (0x7fffffffed2c) of Size = (4) -- vaddr (0x7fffffffed2c) -- paddr (0x1c1d2c) 

-- PC: (0x400b6e)- Tick (40865500) - ISN: (31875) :: L from (0x7fffffffed2c) of Size = (4) -- vaddr (0x7fffffffed2c) -- paddr (0x1c1d2c) 

-- PC: (0x400b7f)- Tick (40866000) - ISN: (31882) :: L from (0x7fffffffed2c) of Size = (4) -- vaddr (0x7fffffffed2c) -- paddr (0x1c1d2c) 

-- ReadReq [b40:b7f] IF Hit -- Blk -> state: 7 (E) valid: 1 writable: 1 readable: 1 dirty: 0 | tag: 0x2 set: 0xd way: 0 Latency: 2 

-- WriteReq [bc3f6:bc3f6] Hit -- Blk -> state: f (M) valid: 1 writable: 1 readable: 1 dirty: 1 | tag: 0x2f0 set: 0xf way: 0 Latency: 2 

-- PC: (0x400b7b)- Tick (40867000) - ISN: (31880) :: S -> (0x1) at (0x6bc3f7) of Size = (1) -- vaddr (0x6bc3f7) -- paddr (0xbc3f7) 

-- ReadReq [b80:bbf] IF Hit -- Blk -> state: 7 (E) valid: 1 writable: 1 readable: 1 dirty: 0 | tag: 0x2 set: 0xe way: 0 Latency: 2 

-- PC: (0x400b7f)- Tick (40867500) - ISN: (31884) :: S -> (0x38) at (0x7fffffffed2c) of Size = (4) -- vaddr (0x7fffffffed2c) -- paddr (0x1c1d2c) 

-- WriteReq [1c1d2c:1c1d2f] Hit -- Blk -> state: f (M) valid: 1 writable: 1 readable: 1 dirty: 1 | tag: 0x707 set: 0x4 way: 0 Latency: 2 

-- PC: (0x400b83)- Tick (40868000) - ISN: (31886) :: L from (0x7fffffffed2c) of Size = (4) -- vaddr (0x7fffffffed2c) -- paddr (0x1c1d2c) 

-- PC: (0x400b6e)- Tick (40868000) - ISN: (31891) :: L from (0x7fffffffed2c) of Size = (4) -- vaddr (0x7fffffffed2c) -- paddr (0x1c1d2c) 

-- PC: (0x400b7f)- Tick (40868500) - ISN: (31898) :: L from (0x7fffffffed2c) of Size = (4) -- vaddr (0x7fffffffed2c) -- paddr (0x1c1d2c) 

-- ReadReq [b40:b7f] IF Hit -- Blk -> state: 7 (E) valid: 1 writable: 1 readable: 1 dirty: 0 | tag: 0x2 set: 0xd way: 0 Latency: 2 

-- WriteReq [bc3f7:bc3f7] Hit -- Blk -> state: f (M) valid: 1 writable: 1 readable: 1 dirty: 1 | tag: 0x2f0 set: 0xf way: 0 Latency: 2 

-- PC: (0x400b7b)- Tick (40869500) - ISN: (31896) :: S -> (0x1) at (0x6bc3f8) of Size = (1) -- vaddr (0x6bc3f8) -- paddr (0xbc3f8) 

-- ReadReq [b80:bbf] IF Hit -- Blk -> state: 7 (E) valid: 1 writable: 1 readable: 1 dirty: 0 | tag: 0x2 set: 0xe way: 0 Latency: 2 

-- PC: (0x400b7f)- Tick (40870000) - ISN: (31900) :: S -> (0x39) at (0x7fffffffed2c) of Size = (4) -- vaddr (0x7fffffffed2c) -- paddr (0x1c1d2c) 

-- WriteReq [1c1d2c:1c1d2f] Hit -- Blk -> state: f (M) valid: 1 writable: 1 readable: 1 dirty: 1 | tag: 0x707 set: 0x4 way: 0 Latency: 2 

-- PC: (0x400b83)- Tick (40870500) - ISN: (31902) :: L from (0x7fffffffed2c) of Size = (4) -- vaddr (0x7fffffffed2c) -- paddr (0x1c1d2c) 

-- PC: (0x400b6e)- Tick (40870500) - ISN: (31907) :: L from (0x7fffffffed2c) of Size = (4) -- vaddr (0x7fffffffed2c) -- paddr (0x1c1d2c) 

-- PC: (0x400b7f)- Tick (40871000) - ISN: (31914) :: L from (0x7fffffffed2c) of Size = (4) -- vaddr (0x7fffffffed2c) -- paddr (0x1c1d2c) 

-- ReadReq [b40:b7f] IF Hit -- Blk -> state: 7 (E) valid: 1 writable: 1 readable: 1 dirty: 0 | tag: 0x2 set: 0xd way: 0 Latency: 2 

-- WriteReq [bc3f8:bc3f8] Hit -- Blk -> state: f (M) valid: 1 writable: 1 readable: 1 dirty: 1 | tag: 0x2f0 set: 0xf way: 0 Latency: 2 

-- PC: (0x400b7b)- Tick (40872000) - ISN: (31912) :: S -> (0x1) at (0x6bc3f9) of Size = (1) -- vaddr (0x6bc3f9) -- paddr (0xbc3f9) 

-- ReadReq [b80:bbf] IF Hit -- Blk -> state: 7 (E) valid: 1 writable: 1 readable: 1 dirty: 0 | tag: 0x2 set: 0xe way: 0 Latency: 2 

-- PC: (0x400b7f)- Tick (40872500) - ISN: (31916) :: S -> (0x3a) at (0x7fffffffed2c) of Size = (4) -- vaddr (0x7fffffffed2c) -- paddr (0x1c1d2c) 

-- WriteReq [1c1d2c:1c1d2f] Hit -- Blk -> state: f (M) valid: 1 writable: 1 readable: 1 dirty: 1 | tag: 0x707 set: 0x4 way: 0 Latency: 2 

-- PC: (0x400b83)- Tick (40873000) - ISN: (31918) :: L from (0x7fffffffed2c) of Size = (4) -- vaddr (0x7fffffffed2c) -- paddr (0x1c1d2c) 

-- PC: (0x400b6e)- Tick (40873000) - ISN: (31923) :: L from (0x7fffffffed2c) of Size = (4) -- vaddr (0x7fffffffed2c) -- paddr (0x1c1d2c) 

[...]

-- PC: (0x400bb0)- Tick (53146500) - ISN: (64167) :: S -> (0x5) at (0x7be7d5) of Size = (1) -- vaddr (0x7be7d5) -- paddr (0x1be7d5) 

-- PC: (0x400bb4)- Tick (53146500) - ISN: (64171) :: S -> (0xf6) at (0x7fffffffed2c) of Size = (4) -- vaddr (0x7fffffffed2c) -- paddr (0x1c1d2c) 

-- PC: (0x400bb8)- Tick (53147000) - ISN: (64173) :: L from (0x7fffffffed2c) of Size = (4) -- vaddr (0x7fffffffed2c) -- paddr (0x1c1d2c) 

-- PC: (0x400ba3)- Tick (53147000) - ISN: (64178) :: L from (0x7fffffffed2c) of Size = (4) -- vaddr (0x7fffffffed2c) -- paddr (0x1c1d2c) 

-- PC: (0x400bb4)- Tick (53147000) - ISN: (64185) :: L from (0x7fffffffed2c) of Size = (4) -- vaddr (0x7fffffffed2c) -- paddr (0x1c1d2c) 

-- WriteReq [1c1d2c:1c1d2f] Hit -- Blk -> state: f (M) valid: 1 writable: 1 readable: 1 dirty: 1 | tag: 0x707 set: 0x4 way: 0 Latency: 2 

-- ReadReq [bc0:bff] IF Hit -- Blk -> state: 7 (E) valid: 1 writable: 1 readable: 1 dirty: 0 | tag: 0x2 set: 0xf way: 0 Latency: 2 

-- WriteReq [1be7c8:1be7c8] Hit -- Blk -> state: f (M) valid: 1 writable: 1 readable: 1 dirty: 1 | tag: 0x6f9 set: 0xf way: 0 Latency: 2 

-- PC: (0x400bb0)- Tick (53148500) - ISN: (64183) :: S -> (0x5) at (0x7be7d6) of Size = (1) -- vaddr (0x7be7d6) -- paddr (0x1be7d6) 

-- PC: (0x400bb4)- Tick (53148500) - ISN: (64187) :: S -> (0xf7) at (0x7fffffffed2c) of Size = (4) -- vaddr (0x7fffffffed2c) -- paddr (0x1c1d2c) 

-- ReadReq [b80:bbf] IF Hit -- Blk -> state: 7 (E) valid: 1 writable: 1 readable: 1 dirty: 0 | tag: 0x2 set: 0xe way: 0 Latency: 2 

-- PC: (0x400bb8)- Tick (53149000) - ISN: (64189) :: L from (0x7fffffffed2c) of Size = (4) -- vaddr (0x7fffffffed2c) -- paddr (0x1c1d2c) 

-- PC: (0x400ba3)- Tick (53149000) - ISN: (64194) :: L from (0x7fffffffed2c) of Size = (4) -- vaddr (0x7fffffffed2c) -- paddr (0x1c1d2c) 

-- PC: (0x400bb4)- Tick (53149000) - ISN: (64201) :: L from (0x7fffffffed2c) of Size = (4) -- vaddr (0x7fffffffed2c) -- paddr (0x1c1d2c) 

-- WriteReq [1c1d2c:1c1d2f] Hit -- Blk -> state: f (M) valid: 1 writable: 1 readable: 1 dirty: 1 | tag: 0x707 set: 0x4 way: 0 Latency: 2 

-- WriteReq [1be7c9:1be7c9] Hit -- Blk -> state: f (M) valid: 1 writable: 1 readable: 1 dirty: 1 | tag: 0x6f9 set: 0xf way: 0 Latency: 2 

-- ReadReq [bc0:bff] IF Hit -- Blk -> state: 7 (E) valid: 1 writable: 1 readable: 1 dirty: 0 | tag: 0x2 set: 0xf way: 0 Latency: 2 

-- PC: (0x400bb0)- Tick (53150500) - ISN: (64199) :: S -> (0x5) at (0x7be7d7) of Size = (1) -- vaddr (0x7be7d7) -- paddr (0x1be7d7) 

-- PC: (0x400bb4)- Tick (53150500) - ISN: (64203) :: S -> (0xf8) at (0x7fffffffed2c) of Size = (4) -- vaddr (0x7fffffffed2c) -- paddr (0x1c1d2c) 

-- PC: (0x400bb8)- Tick (53151000) - ISN: (64205) :: L from (0x7fffffffed2c) of Size = (4) -- vaddr (0x7fffffffed2c) -- paddr (0x1c1d2c) 

-- PC: (0x400ba3)- Tick (53151000) - ISN: (64210) :: L from (0x7fffffffed2c) of Size = (4) -- vaddr (0x7fffffffed2c) -- paddr (0x1c1d2c) 

-- PC: (0x400bb4)- Tick (53151000) - ISN: (64217) :: L from (0x7fffffffed2c) of Size = (4) -- vaddr (0x7fffffffed2c) -- paddr (0x1c1d2c) 

-- WriteReq [1c1d2c:1c1d2f] Hit -- Blk -> state: f (M) valid: 1 writable: 1 readable: 1 dirty: 1 | tag: 0x707 set: 0x4 way: 0 Latency: 2 

-- ReadReq [b80:bbf] IF Hit -- Blk -> state: 7 (E) valid: 1 writable: 1 readable: 1 dirty: 0 | tag: 0x2 set: 0xe way: 0 Latency: 2 

-- WriteReq [1be7ca:1be7ca] Hit -- Blk -> state: f (M) valid: 1 writable: 1 readable: 1 dirty: 1 | tag: 0x6f9 set: 0xf way: 0 Latency: 2 

-- PC: (0x400bb0)- Tick (53152500) - ISN: (64215) :: S -> (0x5) at (0x7be7d8) of Size = (1) -- vaddr (0x7be7d8) -- paddr (0x1be7d8) 

-- PC: (0x400bb4)- Tick (53152500) - ISN: (64219) :: S -> (0xf9) at (0x7fffffffed2c) of Size = (4) -- vaddr (0x7fffffffed2c) -- paddr (0x1c1d2c) 

-- ReadReq [bc0:bff] IF Hit -- Blk -> state: 7 (E) valid: 1 writable: 1 readable: 1 dirty: 0 | tag: 0x2 set: 0xf way: 0 Latency: 2 

-- PC: (0x400bb8)- Tick (53153000) - ISN: (64221) :: L from (0x7fffffffed2c) of Size = (4) -- vaddr (0x7fffffffed2c) -- paddr (0x1c1d2c) 

-- PC: (0x400ba3)- Tick (53153000) - ISN: (64226) :: L from (0x7fffffffed2c) of Size = (4) -- vaddr (0x7fffffffed2c) -- paddr (0x1c1d2c) 

-- PC: (0x400bb4)- Tick (53153000) - ISN: (64233) :: L from (0x7fffffffed2c) of Size = (4) -- vaddr (0x7fffffffed2c) -- paddr (0x1c1d2c) 

-- WriteReq [1c1d2c:1c1d2f] Hit -- Blk -> state: f (M) valid: 1 writable: 1 readable: 1 dirty: 1 | tag: 0x707 set: 0x4 way: 0 Latency: 2 

-- ReadReq [b80:bbf] IF Hit -- Blk -> state: 7 (E) valid: 1 writable: 1 readable: 1 dirty: 0 | tag: 0x2 set: 0xe way: 0 Latency: 2 

-- WriteReq [1be7cb:1be7cb] Hit -- Blk -> state: f (M) valid: 1 writable: 1 readable: 1 dirty: 1 | tag: 0x6f9 set: 0xf way: 0 Latency: 2 

-- PC: (0x400bb0)- Tick (53154500) - ISN: (64231) :: S -> (0x5) at (0x7be7d9) of Size = (1) -- vaddr (0x7be7d9) -- paddr (0x1be7d9) 

-- PC: (0x400bb4)- Tick (53154500) - ISN: (64235) :: S -> (0xfa) at (0x7fffffffed2c) of Size = (4) -- vaddr (0x7fffffffed2c) -- paddr (0x1c1d2c) 

-- PC: (0x400bb8)- Tick (53155000) - ISN: (64237) :: L from (0x7fffffffed2c) of Size = (4) -- vaddr (0x7fffffffed2c) -- paddr (0x1c1d2c) 

-- PC: (0x400ba3)- Tick (53155000) - ISN: (64242) :: L from (0x7fffffffed2c) of Size = (4) -- vaddr (0x7fffffffed2c) -- paddr (0x1c1d2c) 

-- PC: (0x400bb4)- Tick (53155000) - ISN: (64249) :: L from (0x7fffffffed2c) of Size = (4) -- vaddr (0x7fffffffed2c) -- paddr (0x1c1d2c) 

-- WriteReq [1c1d2c:1c1d2f] Hit -- Blk -> state: f (M) valid: 1 writable: 1 readable: 1 dirty: 1 | tag: 0x707 set: 0x4 way: 0 Latency: 2 

-- ReadReq [bc0:bff] IF Hit -- Blk -> state: 7 (E) valid: 1 writable: 1 readable: 1 dirty: 0 | tag: 0x2 set: 0xf way: 0 Latency: 2 

-- WriteReq [1be7cc:1be7cc] Hit -- Blk -> state: f (M) valid: 1 writable: 1 readable: 1 dirty: 1 | tag: 0x6f9 set: 0xf way: 0 Latency: 2 

-- ReadReq [b80:bbf] IF Hit -- Blk -> state: 7 (E) valid: 1 writable: 1 readable: 1 dirty: 0 | tag: 0x2 set: 0xe way: 0 Latency: 2 

-- PC: (0x400bb0)- Tick (53156500) - ISN: (64247) :: S -> (0x5) at (0x7be7da) of Size = (1) -- vaddr (0x7be7da) -- paddr (0x1be7da) 

-- PC: (0x400bb4)- Tick (53156500) - ISN: (64251) :: S -> (0xfb) at (0x7fffffffed2c) of Size = (4) -- vaddr (0x7fffffffed2c) -- paddr (0x1c1d2c) 

-- PC: (0x400bb8)- Tick (53157000) - ISN: (64253) :: L from (0x7fffffffed2c) of Size = (4) -- vaddr (0x7fffffffed2c) -- paddr (0x1c1d2c) 

-- WriteReq [1c1d2c:1c1d2f] Hit -- Blk -> state: f (M) valid: 1 writable: 1 readable: 1 dirty: 1 | tag: 0x707 set: 0x4 way: 0 Latency: 2 

-- PC: (0x400ba3)- Tick (53157500) - ISN: (64258) :: L from (0x7fffffffed2c) of Size = (4) -- vaddr (0x7fffffffed2c) -- paddr (0x1c1d2c) 

-- PC: (0x400bb4)- Tick (53157500) - ISN: (64265) :: L from (0x7fffffffed2c) of Size = (4) -- vaddr (0x7fffffffed2c) -- paddr (0x1c1d2c) 

-- ReadReq [bc0:bff] IF Hit -- Blk -> state: 7 (E) valid: 1 writable: 1 readable: 1 dirty: 0 | tag: 0x2 set: 0xf way: 0 Latency: 2 

-- WriteReq [1be7cd:1be7cd] Hit -- Blk -> state: f (M) valid: 1 writable: 1 readable: 1 dirty: 1 | tag: 0x6f9 set: 0xf way: 0 Latency: 2 

-- ReadReq [b80:bbf] IF Hit -- Blk -> state: 7 (E) valid: 1 writable: 1 readable: 1 dirty: 0 | tag: 0x2 set: 0xe way: 0 Latency: 2 

-- PC: (0x400bb0)- Tick (53159000) - ISN: (64263) :: S -> (0x5) at (0x7be7db) of Size = (1) -- vaddr (0x7be7db) -- paddr (0x1be7db) 

-- PC: (0x400bb4)- Tick (53159000) - ISN: (64267) :: S -> (0xfc) at (0x7fffffffed2c) of Size = (4) -- vaddr (0x7fffffffed2c) -- paddr (0x1c1d2c) 

-- WriteReq [1c1d2c:1c1d2f] Hit -- Blk -> state: f (M) valid: 1 writable: 1 readable: 1 dirty: 1 | tag: 0x707 set: 0x4 way: 0 Latency: 2 

-- PC: (0x400bb8)- Tick (53159500) - ISN: (64269) :: L from (0x7fffffffed2c) of Size = (4) -- vaddr (0x7fffffffed2c) -- paddr (0x1c1d2c) 

-- PC: (0x400ba3)- Tick (53160000) - ISN: (64274) :: L from (0x7fffffffed2c) of Size = (4) -- vaddr (0x7fffffffed2c) -- paddr (0x1c1d2c) 

-- PC: (0x400bb4)- Tick (53160000) - ISN: (64281) :: L from (0x7fffffffed2c) of Size = (4) -- vaddr (0x7fffffffed2c) -- paddr (0x1c1d2c) 

-- WriteReq [1be7ce:1be7ce] Hit -- Blk -> state: f (M) valid: 1 writable: 1 readable: 1 dirty: 1 | tag: 0x6f9 set: 0xf way: 0 Latency: 2 

-- ReadReq [bc0:bff] IF Hit -- Blk -> state: 7 (E) valid: 1 writable: 1 readable: 1 dirty: 0 | tag: 0x2 set: 0xf way: 0 Latency: 2 

-- WriteReq [1c1d2c:1c1d2f] Hit -- Blk -> state: f (M) valid: 1 writable: 1 readable: 1 dirty: 1 | tag: 0x707 set: 0x4 way: 0 Latency: 2 

-- ReadReq [b80:bbf] IF Hit -- Blk -> state: 7 (E) valid: 1 writable: 1 readable: 1 dirty: 0 | tag: 0x2 set: 0xe way: 0 Latency: 2 

-- PC: (0x400bb0)- Tick (53161500) - ISN: (64279) :: S -> (0x5) at (0x7be7dc) of Size = (1) -- vaddr (0x7be7dc) -- paddr (0x1be7dc) 

-- PC: (0x400bb4)- Tick (53161500) - ISN: (64283) :: S -> (0xfd) at (0x7fffffffed2c) of Size = (4) -- vaddr (0x7fffffffed2c) -- paddr (0x1c1d2c) 

-- PC: (0x400bb8)- Tick (53162000) - ISN: (64285) :: L from (0x7fffffffed2c) of Size = (4) -- vaddr (0x7fffffffed2c) -- paddr (0x1c1d2c) 

-- WriteReq [1be7cf:1be7cf] Hit -- Blk -> state: f (M) valid: 1 writable: 1 readable: 1 dirty: 1 | tag: 0x6f9 set: 0xf way: 0 Latency: 2 

-- PC: (0x400ba3)- Tick (53162500) - ISN: (64290) :: L from (0x7fffffffed2c) of Size = (4) -- vaddr (0x7fffffffed2c) -- paddr (0x1c1d2c) 

-- PC: (0x400bb4)- Tick (53162500) - ISN: (64297) :: L from (0x7fffffffed2c) of Size = (4) -- vaddr (0x7fffffffed2c) -- paddr (0x1c1d2c) 

-- ReadReq [bc0:bff] IF Hit -- Blk -> state: 7 (E) valid: 1 writable: 1 readable: 1 dirty: 0 | tag: 0x2 set: 0xf way: 0 Latency: 2 

-- WriteReq [1c1d2c:1c1d2f] Hit -- Blk -> state: f (M) valid: 1 writable: 1 readable: 1 dirty: 1 | tag: 0x707 set: 0x4 way: 0 Latency: 2 

-- ReadReq [b80:bbf] IF Hit -- Blk -> state: 7 (E) valid: 1 writable: 1 readable: 1 dirty: 0 | tag: 0x2 set: 0xe way: 0 Latency: 2 

-- PC: (0x400bb0)- Tick (53164000) - ISN: (64295) :: S -> (0x5) at (0x7be7dd) of Size = (1) -- vaddr (0x7be7dd) -- paddr (0x1be7dd) 

-- PC: (0x400bb4)- Tick (53164000) - ISN: (64299) :: S -> (0xfe) at (0x7fffffffed2c) of Size = (4) -- vaddr (0x7fffffffed2c) -- paddr (0x1c1d2c) 

-- WriteReq [1be7d0:1be7d0] Hit -- Blk -> state: f (M) valid: 1 writable: 1 readable: 1 dirty: 1 | tag: 0x6f9 set: 0xf way: 0 Latency: 2 

-- PC: (0x400bb8)- Tick (53164500) - ISN: (64301) :: L from (0x7fffffffed2c) of Size = (4) -- vaddr (0x7fffffffed2c) -- paddr (0x1c1d2c) 

-- PC: (0x400ba3)- Tick (53165000) - ISN: (64306) :: L from (0x7fffffffed2c) of Size = (4) -- vaddr (0x7fffffffed2c) -- paddr (0x1c1d2c) 

-- PC: (0x400bb4)- Tick (53165000) - ISN: (64313) :: L from (0x7fffffffed2c) of Size = (4) -- vaddr (0x7fffffffed2c) -- paddr (0x1c1d2c) 

-- WriteReq [1c1d2c:1c1d2f] Hit -- Blk -> state: f (M) valid: 1 writable: 1 readable: 1 dirty: 1 | tag: 0x707 set: 0x4 way: 0 Latency: 2 

-- ReadReq [bc0:bff] IF Hit -- Blk -> state: 7 (E) valid: 1 writable: 1 readable: 1 dirty: 0 | tag: 0x2 set: 0xf way: 0 Latency: 2 

-- WriteReq [1be7d1:1be7d1] Hit -- Blk -> state: f (M) valid: 1 writable: 1 readable: 1 dirty: 1 | tag: 0x6f9 set: 0xf way: 0 Latency: 2 

-- ReadReq [b80:bbf] IF Hit -- Blk -> state: 7 (E) valid: 1 writable: 1 readable: 1 dirty: 0 | tag: 0x2 set: 0xe way: 0 Latency: 2 

-- PC: (0x400bb0)- Tick (53166500) - ISN: (64311) :: S -> (0x5) at (0x7be7de) of Size = (1) -- vaddr (0x7be7de) -- paddr (0x1be7de) 

-- PC: (0x400bb4)- Tick (53166500) - ISN: (64315) :: S -> (0xff) at (0x7fffffffed2c) of Size = (4) -- vaddr (0x7fffffffed2c) -- paddr (0x1c1d2c) 

-- PC: (0x400bb8)- Tick (53167000) - ISN: (64317) :: L from (0x7fffffffed2c) of Size = (4) -- vaddr (0x7fffffffed2c) -- paddr (0x1c1d2c) 

-- WriteReq [1c1d2c:1c1d2f] Hit -- Blk -> state: f (M) valid: 1 writable: 1 readable: 1 dirty: 1 | tag: 0x707 set: 0x4 way: 0 Latency: 2 

-- PC: (0x400ba3)- Tick (53167500) - ISN: (64322) :: L from (0x7fffffffed2c) of Size = (4) -- vaddr (0x7fffffffed2c) -- paddr (0x1c1d2c) 

-- PC: (0x400bb4)- Tick (53167500) - ISN: (64329) :: L from (0x7fffffffed2c) of Size = (4) -- vaddr (0x7fffffffed2c) -- paddr (0x1c1d2c) 

-- ReadReq [bc0:bff] IF Hit -- Blk -> state: 7 (E) valid: 1 writable: 1 readable: 1 dirty: 0 | tag: 0x2 set: 0xf way: 0 Latency: 2 

-- WriteReq [1be7d2:1be7d2] Hit -- Blk -> state: f (M) valid: 1 writable: 1 readable: 1 dirty: 1 | tag: 0x6f9 set: 0xf way: 0 Latency: 2 

-- ReadReq [b80:bbf] IF Hit -- Blk -> state: 7 (E) valid: 1 writable: 1 readable: 1 dirty: 0 | tag: 0x2 set: 0xe way: 0 Latency: 2 

-- PC: (0x400bb0)- Tick (53169000) - ISN: (64327) :: S -> (0x5) at (0x7be7df) of Size = (1) -- vaddr (0x7be7df) -- paddr (0x1be7df) 

-- PC: (0x400bb4)- Tick (53169000) - ISN: (64331) :: S -> (0x0) at (0x7fffffffed2c) of Size = (4) -- vaddr (0x7fffffffed2c) -- paddr (0x1c1d2c) 

-- WriteReq [1c1d2c:1c1d2f] Hit -- Blk -> state: f (M) valid: 1 writable: 1 readable: 1 dirty: 1 | tag: 0x707 set: 0x4 way: 0 Latency: 2 

-- PC: (0x400bb8)- Tick (53169500) - ISN: (64333) :: L from (0x7fffffffed2c) of Size = (4) -- vaddr (0x7fffffffed2c) -- paddr (0x1c1d2c) 

-- PC: (0x400ba3)- Tick (53170000) - ISN: (64338) :: L from (0x7fffffffed2c) of Size = (4) -- vaddr (0x7fffffffed2c) -- paddr (0x1c1d2c) 

-- PC: (0x400bb4)- Tick (53170000) - ISN: (64345) :: L from (0x7fffffffed2c) of Size = (4) -- vaddr (0x7fffffffed2c) -- paddr (0x1c1d2c) 

-- WriteReq [1be7d3:1be7d3] Hit -- Blk -> state: f (M) valid: 1 writable: 1 readable: 1 dirty: 1 | tag: 0x6f9 set: 0xf way: 0 Latency: 2 

-- ReadReq [bc0:bff] IF Hit -- Blk -> state: 7 (E) valid: 1 writable: 1 readable: 1 dirty: 0 | tag: 0x2 set: 0xf way: 0 Latency: 2 

-- WriteReq [1c1d2c:1c1d2f] Hit -- Blk -> state: f (M) valid: 1 writable: 1 readable: 1 dirty: 1 | tag: 0x707 set: 0x4 way: 0 Latency: 2 

-- ReadReq [b80:bbf] IF Hit -- Blk -> state: 7 (E) valid: 1 writable: 1 readable: 1 dirty: 0 | tag: 0x2 set: 0xe way: 0 Latency: 2 

-- PC: (0x400bb0)- Tick (53171500) - ISN: (64343) :: S -> (0x5) at (0x7be7e0) of Size = (1) -- vaddr (0x7be7e0) -- paddr (0x1be7e0) 

-- PC: (0x400bb4)- Tick (53171500) - ISN: (64347) :: S -> (0x1) at (0x7fffffffed2c) of Size = (4) -- vaddr (0x7fffffffed2c) -- paddr (0x1c1d2c) 

-- Sqsh -> ISN (64337)

-- WriteReq [1be7d4:1be7d4] Hit -- Blk -> state: f (M) valid: 1 writable: 1 readable: 1 dirty: 1 | tag: 0x6f9 set: 0xf way: 0 Latency: 2 

-- ReadReq [bc0:bff] IF Hit -- Blk -> state: 7 (E) valid: 1 writable: 1 readable: 1 dirty: 0 | tag: 0x2 set: 0xf way: 0 Latency: 2 

-- WriteReq [1c1d2c:1c1d2f] Hit -- Blk -> state: f (M) valid: 1 writable: 1 readable: 1 dirty: 1 | tag: 0x707 set: 0x4 way: 0 Latency: 2 

-- WriteReq [1be7d5:1be7d5] Hit -- Blk -> state: f (M) valid: 1 writable: 1 readable: 1 dirty: 1 | tag: 0x6f9 set: 0xf way: 0 Latency: 2 

-- ReadReq [c00:c3f] IF Hit -- Blk -> state: 7 (E) valid: 1 writable: 1 readable: 1 dirty: 0 | tag: 0x3 set: 0 way: 0 Latency: 2 

-- WriteReq [1c1d2c:1c1d2f] Hit -- Blk -> state: f (M) valid: 1 writable: 1 readable: 1 dirty: 1 | tag: 0x707 set: 0x4 way: 0 Latency: 2 

-- WriteReq [1be7d6:1be7d6] Hit -- Blk -> state: f (M) valid: 1 writable: 1 readable: 1 dirty: 1 | tag: 0x6f9 set: 0xf way: 0 Latency: 2 

-- ReadReq [c40:c7f] IF Hit -- Blk -> state: 7 (E) valid: 1 writable: 1 readable: 1 dirty: 0 | tag: 0x3 set: 0x1 way: 0 Latency: 2 

-- PC: (0x400bc8)- Tick (53177000) - ISN: (64373) :: S -> (0xe0) at (0x7c03e8) of Size = (8) -- vaddr (0x7c03e8) -- paddr (0x1c03e8) 

-- WriteReq [1c1d2c:1c1d2f] Hit -- Blk -> state: f (M) valid: 1 writable: 1 readable: 1 dirty: 1 | tag: 0x707 set: 0x4 way: 0 Latency: 2 

-- PC: (0x400bcf)- Tick (53177500) - ISN: (64375) :: L from (0x7c03e8) of Size = (8) -- vaddr (0x7c03e8) -- paddr (0x1c03e8) 

-- WriteReq [1be7d7:1be7d7] Hit -- Blk -> state: f (M) valid: 1 writable: 1 readable: 1 dirty: 1 | tag: 0x6f9 set: 0xf way: 0 Latency: 2 

-- PC: (0x400bd6)- Tick (5317850array[] = 0 
0) - ISN: (64376) :: L from (0x7be3e0) of Size = (1) -- vaddr (0x7be3e0) -- paddr (0x1be3e0) 

-- ReadReq [1be3e0:1be3e0] Miss --  Latency: 502 

-- ReadReq [bc0:bff] IF Hit -- Blk -> state: 7 (E) valid: 1 writable: 1 readable: 1 dirty: 0 | tag: 0x2 set: 0xf way: 0 Latency: 2 

-- WriteReq [1c1d2c:1c1d2f] Hit -- Blk -> state: f (M) valid: 1 writable: 1 readable: 1 dirty: 1 | tag: 0x707 set: 0x4 way: 0 Latency: 2 

-- WriteReq [1be7d8:1be7d8] Hit -- Blk -> state: f (M) valid: 1 writable: 1 readable: 1 dirty: 1 | tag: 0x6f9 set: 0xf way: 0 Latency: 2 

-- WriteReq [1c1d2c:1c1d2f] Hit -- Blk -> state: f (M) valid: 1 writable: 1 readable: 1 dirty: 1 | tag: 0x707 set: 0x4 way: 0 Latency: 2 

-- WriteReq [1be7d9:1be7d9] Hit -- Blk -> state: f (M) valid: 1 writable: 1 readable: 1 dirty: 1 | tag: 0x6f9 set: 0xf way: 0 Latency: 2 

-- WriteReq [1c1d2c:1c1d2f] Hit -- Blk -> state: f (M) valid: 1 writable: 1 readable: 1 dirty: 1 | tag: 0x707 set: 0x4 way: 0 Latency: 2 

-- WriteReq [1be7da:1be7da] Hit -- Blk -> state: f (M) valid: 1 writable: 1 readable: 1 dirty: 1 | tag: 0x6f9 set: 0xf way: 0 Latency: 2 

-- WriteReq [1c1d2c:1c1d2f] Hit -- Blk -> state: f (M) valid: 1 writable: 1 readable: 1 dirty: 1 | tag: 0x707 set: 0x4 way: 0 Latency: 2 

-- WriteReq [1be7db:1be7db] Hit -- Blk -> state: f (M) valid: 1 writable: 1 readable: 1 dirty: 1 | tag: 0x6f9 set: 0xf way: 0 Latency: 2 

-- WriteReq [1c1d2c:1c1d2f] Hit -- Blk -> state: f (M) valid: 1 writable: 1 readable: 1 dirty: 1 | tag: 0x707 set: 0x4 way: 0 Latency: 2 

-- WriteReq [1be7dc:1be7dc] Hit -- Blk -> state: f (M) valid: 1 writable: 1 readable: 1 dirty: 1 | tag: 0x6f9 set: 0xf way: 0 Latency: 2 

-- WriteReq [1c1d2c:1c1d2f] Hit -- Blk -> state: f (M) valid: 1 writable: 1 readable: 1 dirty: 1 | tag: 0x707 set: 0x4 way: 0 Latency: 2 

-- WriteReq [1be7dd:1be7dd] Hit -- Blk -> state: f (M) valid: 1 writable: 1 readable: 1 dirty: 1 | tag: 0x6f9 set: 0xf way: 0 Latency: 2 

-- WriteReq [1c1d2c:1c1d2f] Hit -- Blk -> state: f (M) valid: 1 writable: 1 readable: 1 dirty: 1 | tag: 0x707 set: 0x4 way: 0 Latency: 2 

-- WriteReq [1be7de:1be7de] Hit -- Blk -> state: f (M) valid: 1 writable: 1 readable: 1 dirty: 1 | tag: 0x6f9 set: 0xf way: 0 Latency: 2 

-- WriteReq [1c1d2c:1c1d2f] Hit -- Blk -> state: f (M) valid: 1 writable: 1 readable: 1 dirty: 1 | tag: 0x707 set: 0x4 way: 0 Latency: 2 

-- WriteReq [1be7df:1be7df] Hit -- Blk -> state: f (M) valid: 1 writable: 1 readable: 1 dirty: 1 | tag: 0x6f9 set: 0xf way: 0 Latency: 2 

-- WriteReq [1c1d2c:1c1d2f] Hit -- Blk -> state: f (M) valid: 1 writable: 1 readable: 1 dirty: 1 | tag: 0x707 set: 0x4 way: 0 Latency: 2 

-- WriteReq [1c03e8:1c03ef] Miss --  Latency: 502 

-- PC: (0x400bd9)- Tick (53202000) - ISN: (64379) :: S -> (0x5) at (0x6be3c4) of Size = (1) -- vaddr (0x6be3c4) -- paddr (0xbe3c4) 

-- WriteReq [be3c4:be3c4] Miss --  Latency: 502 

-- Sqsh -> ISN (64387)

-- PC: (0x400bea)- Tick (53300500) - ISN: (64385) :: S -> (0xef) at (0x7fffffffed18) of Size = (8) -- vaddr (0x7fffffffed18) -- paddr (0x1c1d18) 

-- ReadReq [c80:cbf] IF Hit -- Blk -> state: 7 (E) valid: 1 writable: 1 readable: 1 dirty: 0 | tag: 0x3 set: 0x2 way: 0 Latency: 2 

-- ReadReq [bc0:bff] IF Hit -- Blk -> state: 7 (E) valid: 1 writable: 1 readable: 1 dirty: 0 | tag: 0x2 set: 0xf way: 0 Latency: 2 

-- WriteReq [1c1d18:1c1d1f] Hit -- Blk -> state: f (M) valid: 1 writable: 1 readable: 1 dirty: 1 | tag: 0x707 set: 0x4 way: 0 Latency: 2 

-- ReadReq [c00:c3f] IF Hit -- Blk -> state: 7 (E) valid: 1 writable: 1 readable: 1 dirty: 0 | tag: 0x3 set: 0 way: 0 Latency: 2 

-- PC: (0x400c8e)- Tick (53304500) - ISN: (64442) :: L from (0x7fffffffed18) of Size = (8) -- vaddr (0x7fffffffed18) -- paddr (0x1c1d18) 

-- ReadReq [1c1d18:1c1d1f] Hit -- Blk -> state: f (M) valid: 1 writable: 1 readable: 1 dirty: 1 | tag: 0x707 set: 0x4 way: 0 Latency: 2 

-- ReadReq [c40:c7f] IF Hit -- Blk -> state: 7 (E) valid: 1 writable: 1 readable: 1 dirty: 0 | tag: 0x3 set: 0x1 way: 0 Latency: 2 

HERE 2 : enable_memreq_tracing = 0
Exiting @ tick 70010000 because exiting with last active thread context
