gem5 Simulator System.  http://gem5.org
gem5 is copyrighted software; use the --copyright option for details.

gem5 compiled Mar 17 2020 13:52:32
gem5 started Mar 17 2020 20:30:00
gem5 executing on tarund-desk, pid 24832
command line: build/X86/gem5.opt configs/example/se.py --cmd=./tests/my_progs/spectre_test_3 --cpu-type=DerivO3CPU --caches --mem-size=4GB --l1d_size=1kB --l1i_size=1kB --l1d_assoc=1 --l1i_assoc=1 --cacheline_size=64

Global frequency set at 1000000000000 ticks per second
**** REAL SIMULATION ****

Address of a1_len = 0x6b90f0 

Address of i = 0x7fffffffecf8 

Address of j = 0x7fffffffecfc 

Address of x = 0x6bc3a0 

Address of y = 0x6bc428 

Address of array1 = 0x6bc440 

Address of array2 = 0x6bc3c0 

Address of array3 = 0x6bc5e0 
HERE 1 : enable_memreq_tracing = 1
-- Tick (116131000) -- ISN: (80368) : S -> (0x1) at (0x6bc5e4) -- Size = (4) -- vaddr (0x6bc5e4) -- paddr (0xbc5e4) 

-- Tick (116131000) -- ISN: (80370) : S -> (0x0) at (0x7fffffffecf8) -- Size = (4) -- vaddr (0x7fffffffecf8) -- paddr (0xc5cf8) 

-- Tick (116131000) -- ISN: (80374) : L from (0x7fffffffecf8) -- of Size = (4) -- vaddr (0x7fffffffecf8) -- paddr (0xc5cf8) 

-- Tick (116131000) -- ISN: (80381) : L from (0x7fffffffecf8) -- of Size = (4) -- vaddr (0x7fffffffecf8) -- paddr (0xc5cf8) 

-- Tick (116131500) -- ISN: (80385) : L from (0x7fffffffecf8) -- of Size = (4) -- vaddr (0x7fffffffecf8) -- paddr (0xc5cf8) 

-- Sqsh -> ISN (80373)

-- Tick (116136500) -- ISN: (80396) : L from (0x7fffffffecf8) -- of Size = (4) -- vaddr (0x7fffffffecf8) -- paddr (0xc5cf8) 

-- Tick (116137000) -- ISN: (80403) : S -> (0x0) at (0x7fffffffecfc) -- Size = (4) -- vaddr (0x7fffffffecfc) -- paddr (0xc5cfc) 

-- Sqsh -> ISN (80401)

-- Tick (116143000) -- ISN: (80407) : L from (0x7fffffffecf8) -- of Size = (4) -- vaddr (0x7fffffffecf8) -- paddr (0xc5cf8) 

-- Tick (116143000) -- ISN: (80414) : L from (0x7fffffffecf8) -- of Size = (4) -- vaddr (0x7fffffffecf8) -- paddr (0xc5cf8) 

-- Tick (116143500) -- ISN: (80418) : L from (0x7fffffffecf8) -- of Size = (4) -- vaddr (0x7fffffffecf8) -- paddr (0xc5cf8) 

-- Tick (116144500) -- ISN: (80417) : S -> (0x1) at (0x7fffffffecf8) -- Size = (4) -- vaddr (0x7fffffffecf8) -- paddr (0xc5cf8) 

-- Tick (116144500) -- ISN: (80425) : S -> (0x0) at (0x7fffffffecfc) -- Size = (4) -- vaddr (0x7fffffffecfc) -- paddr (0xc5cfc) 

-- Tick (116145000) -- ISN: (80413) : S -> (0x0) at (0x6bc440) -- Size = (4) -- vaddr (0x6bc440) -- paddr (0xbc440) 

-- Sqsh -> ISN (80417)

-- Tick (116149500) -- ISN: (80429) : L from (0x7fffffffecf8) -- of Size = (4) -- vaddr (0x7fffffffecf8) -- paddr (0xc5cf8) 

-- Tick (116150000) -- ISN: (80436) : S -> (0x0) at (0x7fffffffecfc) -- Size = (4) -- vaddr (0x7fffffffecfc) -- paddr (0xc5cfc) 

-- Sqsh -> ISN (80434)

-- Tick (116156000) -- ISN: (80440) : L from (0x7fffffffecf8) -- of Size = (4) -- vaddr (0x7fffffffecf8) -- paddr (0xc5cf8) 

-- Tick (116156000) -- ISN: (80447) : L from (0x7fffffffecf8) -- of Size = (4) -- vaddr (0x7fffffffecf8) -- paddr (0xc5cf8) 

-- Tick (116157500) -- ISN: (80450) : S -> (0x2) at (0x7fffffffecf8) -- Size = (4) -- vaddr (0x7fffffffecf8) -- paddr (0xc5cf8) 

-- Tick (116157500) -- ISN: (80458) : S -> (0x0) at (0x7fffffffecfc) -- Size = (4) -- vaddr (0x7fffffffecfc) -- paddr (0xc5cfc) 

-- Tick (116158000) -- ISN: (80446) : S -> (0x0) at (0x6bc444) -- Size = (4) -- vaddr (0x6bc444) -- paddr (0xbc444) 

-- Tick (116158000) -- ISN: (80451) : L from (0x7fffffffecf8) -- of Size = (4) -- vaddr (0x7fffffffecf8) -- paddr (0xc5cf8) 

-- Sqsh -> ISN (80461)

-- Sqsh -> ISN (80456)

-- Tick (116164500) -- ISN: (80462) : L from (0x7fffffffecf8) -- of Size = (4) -- vaddr (0x7fffffffecf8) -- paddr (0xc5cf8) 

-- Tick (116164500) -- ISN: (80469) : L from (0x7fffffffecf8) -- of Size = (4) -- vaddr (0x7fffffffecf8) -- paddr (0xc5cf8) 

-- Tick (116166000) -- ISN: (80472) : S -> (0x3) at (0x7fffffffecf8) -- Size = (4) -- vaddr (0x7fffffffecf8) -- paddr (0xc5cf8) 

-- Tick (116166000) -- ISN: (80480) : S -> (0x0) at (0x7fffffffecfc) -- Size = (4) -- vaddr (0x7fffffffecfc) -- paddr (0xc5cfc) 

-- Tick (116166500) -- ISN: (80468) : S -> (0x0) at (0x6bc448) -- Size = (4) -- vaddr (0x6bc448) -- paddr (0xbc448) 

-- Tick (116166500) -- ISN: (80473) : L from (0x7fffffffecf8) -- of Size = (4) -- vaddr (0x7fffffffecf8) -- paddr (0xc5cf8) 

-- Sqsh -> ISN (80478)

-- Tick (116173000) -- ISN: (80484) : L from (0x7fffffffecf8) -- of Size = (4) -- vaddr (0x7fffffffecf8) -- paddr (0xc5cf8) 

-- Tick (116173000) -- ISN: (80491) : L from (0x7fffffffecf8) -- of Size = (4) -- vaddr (0x7fffffffecf8) -- paddr (0xc5cf8) 

-- Tick (116174500) -- ISN: (80494) : S -> (0x4) at (0x7fffffffecf8) -- Size = (4) -- vaddr (0x7fffffffecf8) -- paddr (0xc5cf8) 

-- Tick (116174500) -- ISN: (80501) : L from (0x7fffffffecf8) -- of Size = (4) -- vaddr (0x7fffffffecf8) -- paddr (0xc5cf8) 

-- Tick (116174500) -- ISN: (80508) : L from (0x7fffffffecf8) -- of Size = (4) -- vaddr (0x7fffffffecf8) -- paddr (0xc5cf8) 

-- Tick (116175000) -- ISN: (80490) : S -> (0x0) at (0x6bc44c) -- Size = (4) -- vaddr (0x6bc44c) -- paddr (0xbc44c) 

-- Tick (116175000) -- ISN: (80495) : L from (0x7fffffffecf8) -- of Size = (4) -- vaddr (0x7fffffffecf8) -- paddr (0xc5cf8) 

-- Tick (116176000) -- ISN: (80511) : S -> (0x5) at (0x7fffffffecf8) -- Size = (4) -- vaddr (0x7fffffffecf8) -- paddr (0xc5cf8) 

-- Tick (116176000) -- ISN: (80518) : L from (0x7fffffffecf8) -- of Size = (4) -- vaddr (0x7fffffffecf8) -- paddr (0xc5cf8) 

-- Tick (116176000) -- ISN: (80525) : L from (0x7fffffffecf8) -- of Size = (4) -- vaddr (0x7fffffffecf8) -- paddr (0xc5cf8) 

-- Tick (116176500) -- ISN: (80507) : S -> (0x0) at (0x6bc450) -- Size = (4) -- vaddr (0x6bc450) -- paddr (0xbc450) 

-- Tick (116176500) -- ISN: (80512) : L from (0x7fffffffecf8) -- of Size = (4) -- vaddr (0x7fffffffecf8) -- paddr (0xc5cf8) 

-- Tick (116177500) -- ISN: (80528) : S -> (0x6) at (0x7fffffffecf8) -- Size = (4) -- vaddr (0x7fffffffecf8) -- paddr (0xc5cf8) 

-- Tick (116177500) -- ISN: (80535) : L from (0x7fffffffecf8) -- of Size = (4) -- vaddr (0x7fffffffecf8) -- paddr (0xc5cf8) 

-- Tick (116177500) -- ISN: (80542) : L from (0x7fffffffecf8) -- of Size = (4) -- vaddr (0x7fffffffecf8) -- paddr (0xc5cf8) 

-- Tick (116178000) -- ISN: (80524) : S -> (0x0) at (0x6bc454) -- Size = (4) -- vaddr (0x6bc454) -- paddr (0xbc454) 

-- Tick (116178000) -- ISN: (80529) : L from (0x7fffffffecf8) -- of Size = (4) -- vaddr (0x7fffffffecf8) -- paddr (0xc5cf8) 

-- Tick (116179000) -- ISN: (80545) : S -> (0x7) at (0x7fffffffecf8) -- Size = (4) -- vaddr (0x7fffffffecf8) -- paddr (0xc5cf8) 

-- Tick (116179000) -- ISN: (80552) : L from (0x7fffffffecf8) -- of Size = (4) -- vaddr (0x7fffffffecf8) -- paddr (0xc5cf8) 

-- Tick (116179000) -- ISN: (80559) : L from (0x7fffffffecf8) -- of Size = (4) -- vaddr (0x7fffffffecf8) -- paddr (0xc5cf8) 

-- Tick (116179500) -- ISN: (80541) : S -> (0x0) at (0x6bc458) -- Size = (4) -- vaddr (0x6bc458) -- paddr (0xbc458) 

-- Tick (116179500) -- ISN: (80546) : L from (0x7fffffffecf8) -- of Size = (4) -- vaddr (0x7fffffffecf8) -- paddr (0xc5cf8) 

-- Tick (116180500) -- ISN: (80562) : S -> (0x8) at (0x7fffffffecf8) -- Size = (4) -- vaddr (0x7fffffffecf8) -- paddr (0xc5cf8) 

-- Tick (116180500) -- ISN: (80569) : L from (0x7fffffffecf8) -- of Size = (4) -- vaddr (0x7fffffffecf8) -- paddr (0xc5cf8) 

-- Tick (116180500) -- ISN: (80576) : L from (0x7fffffffecf8) -- of Size = (4) -- vaddr (0x7fffffffecf8) -- paddr (0xc5cf8) 

-- Tick (116181000) -- ISN: (80558) : S -> (0x0) at (0x6bc45c) -- Size = (4) -- vaddr (0x6bc45c) -- paddr (0xbc45c) 

-- Tick (116181000) -- ISN: (80563) : L from (0x7fffffffecf8) -- of Size = (4) -- vaddr (0x7fffffffecf8) -- paddr (0xc5cf8) 

-- Tick (116182000) -- ISN: (80579) : S -> (0x9) at (0x7fffffffecf8) -- Size = (4) -- vaddr (0x7fffffffecf8) -- paddr (0xc5cf8) 

-- Tick (116182000) -- ISN: (80586) : L from (0x7fffffffecf8) -- of Size = (4) -- vaddr (0x7fffffffecf8) -- paddr (0xc5cf8) 

-- Tick (116182000) -- ISN: (80593) : L from (0x7fffffffecf8) -- of Size = (4) -- vaddr (0x7fffffffecf8) -- paddr (0xc5cf8) 

-- Tick (116182500) -- ISN: (80575) : S -> (0x0) at (0x6bc460) -- Size = (4) -- vaddr (0x6bc460) -- paddr (0xbc460) 

-- Tick (116182500) -- ISN: (80580) : L from (0x7fffffffecf8) -- of Size = (4) -- vaddr (0x7fffffffecf8) -- paddr (0xc5cf8) 

-- Tick (116183500) -- ISN: (80596) : S -> (0xa) at (0x7fffffffecf8) -- Size = (4) -- vaddr (0x7fffffffecf8) -- paddr (0xc5cf8) 

-- Tick (116183500) -- ISN: (80603) : L from (0x7fffffffecf8) -- of Size = (4) -- vaddr (0x7fffffffecf8) -- paddr (0xc5cf8) 

-- Tick (116183500) -- ISN: (80610) : L from (0x7fffffffecf8) -- of Size = (4) -- vaddr (0x7fffffffecf8) -- paddr (0xc5cf8) 

-- Tick (116184000) -- ISN: (80592) : S -> (0x0) at (0x6bc464) -- Size = (4) -- vaddr (0x6bc464) -- paddr (0xbc464) 

-- Tick (116184000) -- ISN: (80597) : L from (0x7fffffffecf8) -- of Size = (4) -- vaddr (0x7fffffffecf8) -- paddr (0xc5cf8) 

-- Tick (116185000) -- ISN: (80613) : S -> (0xb) at (0x7fffffffecf8) -- Size = (4) -- vaddr (0x7fffffffecf8) -- paddr (0xc5cf8) 

-- Tick (116185000) -- ISN: (80620) : L from (0x7fffffffecf8) -- of Size = (4) -- vaddr (0x7fffffffecf8) -- paddr (0xc5cf8) 

-- Tick (116185000) -- ISN: (80627) : L from (0x7fffffffecf8) -- of Size = (4) -- vaddr (0x7fffffffecf8) -- paddr (0xc5cf8) 

-- Tick (116185500) -- ISN: (80609) : S -> (0x0) at (0x6bc468) -- Size = (4) -- vaddr (0x6bc468) -- paddr (0xbc468) 

-- Tick (116185500) -- ISN: (80614) : L from (0x7fffffffecf8) -- of Size = (4) -- vaddr (0x7fffffffecf8) -- paddr (0xc5cf8) 

-- Tick (116186500) -- ISN: (80630) : S -> (0xc) at (0x7fffffffecf8) -- Size = (4) -- vaddr (0x7fffffffecf8) -- paddr (0xc5cf8) 

-- Tick (116186500) -- ISN: (80637) : L from (0x7fffffffecf8) -- of Size = (4) -- vaddr (0x7fffffffecf8) -- paddr (0xc5cf8) 

-- Tick (116186500) -- ISN: (80644) : L from (0x7fffffffecf8) -- of Size = (4) -- vaddr (0x7fffffffecf8) -- paddr (0xc5cf8) 

-- Tick (116187000) -- ISN: (80626) : S -> (0x0) at (0x6bc46c) -- Size = (4) -- vaddr (0x6bc46c) -- paddr (0xbc46c) 

-- Tick (116187000) -- ISN: (80631) : L from (0x7fffffffecf8) -- of Size = (4) -- vaddr (0x7fffffffecf8) -- paddr (0xc5cf8) 

-- Tick (116188000) -- ISN: (80647) : S -> (0xd) at (0x7fffffffecf8) -- Size = (4) -- vaddr (0x7fffffffecf8) -- paddr (0xc5cf8) 

-- Tick (116188000) -- ISN: (80654) : L from (0x7fffffffecf8) -- of Size = (4) -- vaddr (0x7fffffffecf8) -- paddr (0xc5cf8) 

-- Tick (116188000) -- ISN: (80661) : L from (0x7fffffffecf8) -- of Size = (4) -- vaddr (0x7fffffffecf8) -- paddr (0xc5cf8) 

-- Tick (116188500) -- ISN: (80643) : S -> (0x0) at (0x6bc470) -- Size = (4) -- vaddr (0x6bc470) -- paddr (0xbc470) 

-- Tick (116188500) -- ISN: (80648) : L from (0x7fffffffecf8) -- of Size = (4) -- vaddr (0x7fffffffecf8) -- paddr (0xc5cf8) 

-- Tick (116189500) -- ISN: (80664) : S -> (0xe) at (0x7fffffffecf8) -- Size = (4) -- vaddr (0x7fffffffecf8) -- paddr (0xc5cf8) 

-- Tick (116189500) -- ISN: (80671) : L from (0x7fffffffecf8) -- of Size = (4) -- vaddr (0x7fffffffecf8) -- paddr (0xc5cf8) 

-- Tick (116189500) -- ISN: (80678) : L from (0x7fffffffecf8) -- of Size = (4) -- vaddr (0x7fffffffecf8) -- paddr (0xc5cf8) 

-- Tick (116190000) -- ISN: (80660) : S -> (0x0) at (0x6bc474) -- Size = (4) -- vaddr (0x6bc474) -- paddr (0xbc474) 

-- Tick (116190000) -- ISN: (80665) : L from (0x7fffffffecf8) -- of Size = (4) -- vaddr (0x7fffffffecf8) -- paddr (0xc5cf8) 

-- Tick (116191000) -- ISN: (80681) : S -> (0xf) at (0x7fffffffecf8) -- Size = (4) -- vaddr (0x7fffffffecf8) -- paddr (0xc5cf8) 

-- Tick (116191000) -- ISN: (80688) : L from (0x7fffffffecf8) -- of Size = (4) -- vaddr (0x7fffffffecf8) -- paddr (0xc5cf8) 

-- Tick (116191000) -- ISN: (80695) : L from (0x7fffffffecf8) -- of Size = (4) -- vaddr (0x7fffffffecf8) -- paddr (0xc5cf8) 

-- Tick (116191500) -- ISN: (80677) : S -> (0x0) at (0x6bc478) -- Size = (4) -- vaddr (0x6bc478) -- paddr (0xbc478) 

-- Tick (116191500) -- ISN: (80682) : L from (0x7fffffffecf8) -- of Size = (4) -- vaddr (0x7fffffffecf8) -- paddr (0xc5cf8) 

-- Tick (116193000) -- ISN: (80694) : S -> (0x0) at (0x6bc47c) -- Size = (4) -- vaddr (0x6bc47c) -- paddr (0xbc47c) 

-- Tick (116201000) -- ISN: (80698) : S -> (0x10) at (0x7fffffffecf8) -- Size = (4) -- vaddr (0x7fffffffecf8) -- paddr (0xc5cf8) 

-- Tick (116201500) -- ISN: (80699) : L from (0x7fffffffecf8) -- of Size = (4) -- vaddr (0x7fffffffecf8) -- paddr (0xc5cf8) 

-- Tick (116202000) -- ISN: (80705) : L from (0x7fffffffecf8) -- of Size = (4) -- vaddr (0x7fffffffecf8) -- paddr (0xc5cf8) 

-- Tick (116202000) -- ISN: (80712) : L from (0x7fffffffecf8) -- of Size = (4) -- vaddr (0x7fffffffecf8) -- paddr (0xc5cf8) 

-- Tick (116204000) -- ISN: (80711) : S -> (0x0) at (0x6bc480) -- Size = (4) -- vaddr (0x6bc480) -- paddr (0xbc480) 

-- Tick (116254500) -- ISN: (80715) : S -> (0x11) at (0x7fffffffecf8) -- Size = (4) -- vaddr (0x7fffffffecf8) -- paddr (0xc5cf8) 

-- Tick (116254500) -- ISN: (80722) : L from (0x7fffffffecf8) -- of Size = (4) -- vaddr (0x7fffffffecf8) -- paddr (0xc5cf8) 

-- Tick (116255000) -- ISN: (80716) : L from (0x7fffffffecf8) -- of Size = (4) -- vaddr (0x7fffffffecf8) -- paddr (0xc5cf8) 

-- Tick (116257000) -- ISN: (80728) : S -> (0x0) at (0x6bc484) -- Size = (4) -- vaddr (0x6bc484) -- paddr (0xbc484) 

-- Tick (116257000) -- ISN: (80729) : L from (0x7fffffffecf8) -- of Size = (4) -- vaddr (0x7fffffffecf8) -- paddr (0xc5cf8) 

-- Tick (116258500) -- ISN: (80732) : S -> (0x12) at (0x7fffffffecf8) -- Size = (4) -- vaddr (0x7fffffffecf8) -- paddr (0xc5cf8) 

-- Tick (116259000) -- ISN: (80733) : L from (0x7fffffffecf8) -- of Size = (4) -- vaddr (0x7fffffffecf8) -- paddr (0xc5cf8) 

-- Tick (116259000) -- ISN: (80739) : L from (0x7fffffffecf8) -- of Size = (4) -- vaddr (0x7fffffffecf8) -- paddr (0xc5cf8) 

-- Tick (116259500) -- ISN: (80746) : L from (0x7fffffffecf8) -- of Size = (4) -- vaddr (0x7fffffffecf8) -- paddr (0xc5cf8) 

-- Tick (116261000) -- ISN: (80745) : S -> (0x0) at (0x6bc488) -- Size = (4) -- vaddr (0x6bc488) -- paddr (0xbc488) 

-- Tick (116261000) -- ISN: (80749) : S -> (0x13) at (0x7fffffffecf8) -- Size = (4) -- vaddr (0x7fffffffecf8) -- paddr (0xc5cf8) 

-- Tick (116261000) -- ISN: (80756) : L from (0x7fffffffecf8) -- of Size = (4) -- vaddr (0x7fffffffecf8) -- paddr (0xc5cf8) 

-- Tick (116261500) -- ISN: (80750) : L from (0x7fffffffecf8) -- of Size = (4) -- vaddr (0x7fffffffecf8) -- paddr (0xc5cf8) 

-- Tick (116261500) -- ISN: (80763) : L from (0x7fffffffecf8) -- of Size = (4) -- vaddr (0x7fffffffecf8) -- paddr (0xc5cf8) 

-- Tick (116263000) -- ISN: (80762) : S -> (0x0) at (0x6bc48c) -- Size = (4) -- vaddr (0x6bc48c) -- paddr (0xbc48c) 

-- Tick (116263000) -- ISN: (80766) : S -> (0x14) at (0x7fffffffecf8) -- Size = (4) -- vaddr (0x7fffffffecf8) -- paddr (0xc5cf8) 

-- Tick (116263000) -- ISN: (80773) : L from (0x7fffffffecf8) -- of Size = (4) -- vaddr (0x7fffffffecf8) -- paddr (0xc5cf8) 

-- Tick (116263500) -- ISN: (80767) : L from (0x7fffffffecf8) -- of Size = (4) -- vaddr (0x7fffffffecf8) -- paddr (0xc5cf8) 

-- Tick (116263500) -- ISN: (80780) : L from (0x7fffffffecf8) -- of Size = (4) -- vaddr (0x7fffffffecf8) -- paddr (0xc5cf8) 

-- Tick (116265000) -- ISN: (80779) : S -> (0x0) at (0x6bc490) -- Size = (4) -- vaddr (0x6bc490) -- paddr (0xbc490) 

-- Tick (116265000) -- ISN: (80783) : S -> (0x15) at (0x7fffffffecf8) -- Size = (4) -- vaddr (0x7fffffffecf8) -- paddr (0xc5cf8) 

-- Tick (116265000) -- ISN: (80790) : L from (0x7fffffffecf8) -- of Size = (4) -- vaddr (0x7fffffffecf8) -- paddr (0xc5cf8) 

-- Tick (116265500) -- ISN: (80784) : L from (0x7fffffffecf8) -- of Size = (4) -- vaddr (0x7fffffffecf8) -- paddr (0xc5cf8) 

-- Tick (116265500) -- ISN: (80797) : L from (0x7fffffffecf8) -- of Size = (4) -- vaddr (0x7fffffffecf8) -- paddr (0xc5cf8) 

-- Tick (116267000) -- ISN: (80796) : S -> (0x0) at (0x6bc494) -- Size = (4) -- vaddr (0x6bc494) -- paddr (0xbc494) 

-- Tick (116267000) -- ISN: (80800) : S -> (0x16) at (0x7fffffffecf8) -- Size = (4) -- vaddr (0x7fffffffecf8) -- paddr (0xc5cf8) 

-- Tick (116267000) -- ISN: (80807) : L from (0x7fffffffecf8) -- of Size = (4) -- vaddr (0x7fffffffecf8) -- paddr (0xc5cf8) 

-- Tick (116267500) -- ISN: (80801) : L from (0x7fffffffecf8) -- of Size = (4) -- vaddr (0x7fffffffecf8) -- paddr (0xc5cf8) 

-- Tick (116267500) -- ISN: (80814) : L from (0x7fffffffecf8) -- of Size = (4) -- vaddr (0x7fffffffecf8) -- paddr (0xc5cf8) 

-- Tick (116268500) -- ISN: (80824) : L from (0x7fffffffecf8) -- of Size = (4) -- vaddr (0x7fffffffecf8) -- paddr (0xc5cf8) 

-- Tick (116269000) -- ISN: (80813) : S -> (0x0) at (0x6bc498) -- Size = (4) -- vaddr (0x6bc498) -- paddr (0xbc498) 

-- Tick (116269000) -- ISN: (80817) : S -> (0x17) at (0x7fffffffecf8) -- Size = (4) -- vaddr (0x7fffffffecf8) -- paddr (0xc5cf8) 

-- Tick (116269000) -- ISN: (80831) : L from (0x7fffffffecf8) -- of Size = (4) -- vaddr (0x7fffffffecf8) -- paddr (0xc5cf8) 

-- Tick (116269500) -- ISN: (80818) : L from (0x7fffffffecf8) -- of Size = (4) -- vaddr (0x7fffffffecf8) -- paddr (0xc5cf8) 

-- Sqsh -> ISN (80823)

-- Tick (116273500) -- ISN: (80891) : L from (0x7fffffffecf8) -- of Size = (4) -- vaddr (0x7fffffffecf8) -- paddr (0xc5cf8) 

-- Tick (116273500) -- ISN: (80898) : L from (0x7fffffffecf8) -- of Size = (4) -- vaddr (0x7fffffffecf8) -- paddr (0xc5cf8) 

-- Tick (116275500) -- ISN: (80897) : S -> (0x0) at (0x6bc49c) -- Size = (4) -- vaddr (0x6bc49c) -- paddr (0xbc49c) 

-- Tick (116275500) -- ISN: (80901) : S -> (0x18) at (0x7fffffffecf8) -- Size = (4) -- vaddr (0x7fffffffecf8) -- paddr (0xc5cf8) 

-- Tick (116276000) -- ISN: (80902) : L from (0x7fffffffecf8) -- of Size = (4) -- vaddr (0x7fffffffecf8) -- paddr (0xc5cf8) 

-- Tick (116276000) -- ISN: (80908) : L from (0x7fffffffecf8) -- of Size = (4) -- vaddr (0x7fffffffecf8) -- paddr (0xc5cf8) 

-- Tick (116276000) -- ISN: (80915) : L from (0x7fffffffecf8) -- of Size = (4) -- vaddr (0x7fffffffecf8) -- paddr (0xc5cf8) 

-- Tick (116277500) -- ISN: (80918) : S -> (0x19) at (0x7fffffffecf8) -- Size = (4) -- vaddr (0x7fffffffecf8) -- paddr (0xc5cf8) 

-- Tick (116277500) -- ISN: (80932) : L from (0x7fffffffecf8) -- of Size = (4) -- vaddr (0x7fffffffecf8) -- paddr (0xc5cf8) 

-- Tick (116278000) -- ISN: (80914) : S -> (0x0) at (0x6bc4a0) -- Size = (4) -- vaddr (0x6bc4a0) -- paddr (0xbc4a0) 

-- Tick (116278000) -- ISN: (80919) : L from (0x7fffffffecf8) -- of Size = (4) -- vaddr (0x7fffffffecf8) -- paddr (0xc5cf8) 

-- Tick (116278000) -- ISN: (80925) : L from (0x7fffffffecf8) -- of Size = (4) -- vaddr (0x7fffffffecf8) -- paddr (0xc5cf8) 

-- Tick (116278500) -- ISN: (80949) : L from (0x7fffffffecf8) -- of Size = (4) -- vaddr (0x7fffffffecf8) -- paddr (0xc5cf8) 

-- Tick (116279000) -- ISN: (80935) : S -> (0x1a) at (0x7fffffffecf8) -- Size = (4) -- vaddr (0x7fffffffecf8) -- paddr (0xc5cf8) 

-- Tick (116279500) -- ISN: (80936) : L from (0x7fffffffecf8) -- of Size = (4) -- vaddr (0x7fffffffecf8) -- paddr (0xc5cf8) 

-- Tick (116279500) -- ISN: (80942) : L from (0x7fffffffecf8) -- of Size = (4) -- vaddr (0x7fffffffecf8) -- paddr (0xc5cf8) 

-- Tick (116279500) -- ISN: (80966) : L from (0x7fffffffecf8) -- of Size = (4) -- vaddr (0x7fffffffecf8) -- paddr (0xc5cf8) 

-- Sqsh -> ISN (80948)

-- Tick (116280000) -- ISN: (80931) : S -> (0x0) at (0x6bc4a4) -- Size = (4) -- vaddr (0x6bc4a4) -- paddr (0xbc4a4) 

-- Tick (116281500) -- ISN: (80948) : S -> (0x0) at (0x6bc4a8) -- Size = (4) -- vaddr (0x6bc4a8) -- paddr (0xbc4a8) 

-- Tick (116284000) -- ISN: (81001) : L from (0x7fffffffecf8) -- of Size = (4) -- vaddr (0x7fffffffecf8) -- paddr (0xc5cf8) 

-- Tick (116285500) -- ISN: (81004) : S -> (0x1b) at (0x7fffffffecf8) -- Size = (4) -- vaddr (0x7fffffffecf8) -- paddr (0xc5cf8) 

-- Tick (116286000) -- ISN: (81005) : L from (0x7fffffffecf8) -- of Size = (4) -- vaddr (0x7fffffffecf8) -- paddr (0xc5cf8) 

-- Tick (116286000) -- ISN: (81011) : L from (0x7fffffffecf8) -- of Size = (4) -- vaddr (0x7fffffffecf8) -- paddr (0xc5cf8) 

-- Tick (116286000) -- ISN: (81018) : L from (0x7fffffffecf8) -- of Size = (4) -- vaddr (0x7fffffffecf8) -- paddr (0xc5cf8) 

-- Tick (116287500) -- ISN: (81021) : S -> (0x1c) at (0x7fffffffecf8) -- Size = (4) -- vaddr (0x7fffffffecf8) -- paddr (0xc5cf8) 

-- Tick (116288000) -- ISN: (81017) : S -> (0x0) at (0x6bc4ac) -- Size = (4) -- vaddr (0x6bc4ac) -- paddr (0xbc4ac) 

-- Tick (116288000) -- ISN: (81022) : L from (0x7fffffffecf8) -- of Size = (4) -- vaddr (0x7fffffffecf8) -- paddr (0xc5cf8) 

-- Tick (116288000) -- ISN: (81028) : L from (0x7fffffffecf8) -- of Size = (4) -- vaddr (0x7fffffffecf8) -- paddr (0xc5cf8) 

-- Tick (116288000) -- ISN: (81035) : L from (0x7fffffffecf8) -- of Size = (4) -- vaddr (0x7fffffffecf8) -- paddr (0xc5cf8) 

-- Tick (116289500) -- ISN: (81038) : S -> (0x1d) at (0x7fffffffecf8) -- Size = (4) -- vaddr (0x7fffffffecf8) -- paddr (0xc5cf8) 

-- Tick (116290000) -- ISN: (81034) : S -> (0x0) at (0x6bc4b0) -- Size = (4) -- vaddr (0x6bc4b0) -- paddr (0xbc4b0) 

-- Tick (116290000) -- ISN: (81039) : L from (0x7fffffffecf8) -- of Size = (4) -- vaddr (0x7fffffffecf8) -- paddr (0xc5cf8) 

-- Tick (116290000) -- ISN: (81045) : L from (0x7fffffffecf8) -- of Size = (4) -- vaddr (0x7fffffffecf8) -- paddr (0xc5cf8) 

-- Tick (116290000) -- ISN: (81052) : L from (0x7fffffffecf8) -- of Size = (4) -- vaddr (0x7fffffffecf8) -- paddr (0xc5cf8) 

-- Tick (116291500) -- ISN: (81055) : S -> (0x1e) at (0x7fffffffecf8) -- Size = (4) -- vaddr (0x7fffffffecf8) -- paddr (0xc5cf8) 

-- Tick (116292000) -- ISN: (81051) : S -> (0x0) at (0x6bc4b4) -- Size = (4) -- vaddr (0x6bc4b4) -- paddr (0xbc4b4) 

-- Tick (116292000) -- ISN: (81056) : L from (0x7fffffffecf8) -- of Size = (4) -- vaddr (0x7fffffffecf8) -- paddr (0xc5cf8) 

-- Tick (116292000) -- ISN: (81062) : L from (0x7fffffffecf8) -- of Size = (4) -- vaddr (0x7fffffffecf8) -- paddr (0xc5cf8) 

-- Tick (116292000) -- ISN: (81069) : L from (0x7fffffffecf8) -- of Size = (4) -- vaddr (0x7fffffffecf8) -- paddr (0xc5cf8) 

-- Tick (116293500) -- ISN: (81072) : S -> (0x1f) at (0x7fffffffecf8) -- Size = (4) -- vaddr (0x7fffffffecf8) -- paddr (0xc5cf8) 

-- Tick (116294000) -- ISN: (81068) : S -> (0x0) at (0x6bc4b8) -- Size = (4) -- vaddr (0x6bc4b8) -- paddr (0xbc4b8) 

-- Tick (116294000) -- ISN: (81073) : L from (0x7fffffffecf8) -- of Size = (4) -- vaddr (0x7fffffffecf8) -- paddr (0xc5cf8) 

-- Tick (116294000) -- ISN: (81079) : L from (0x7fffffffecf8) -- of Size = (4) -- vaddr (0x7fffffffecf8) -- paddr (0xc5cf8) 

-- Tick (116294000) -- ISN: (81086) : L from (0x7fffffffecf8) -- of Size = (4) -- vaddr (0x7fffffffecf8) -- paddr (0xc5cf8) 

-- Tick (116295500) -- ISN: (81089) : S -> (0x20) at (0x7fffffffecf8) -- Size = (4) -- vaddr (0x7fffffffecf8) -- paddr (0xc5cf8) 

-- Tick (116296000) -- ISN: (81085) : S -> (0x0) at (0x6bc4bc) -- Size = (4) -- vaddr (0x6bc4bc) -- paddr (0xbc4bc) 

-- Tick (116296000) -- ISN: (81090) : L from (0x7fffffffecf8) -- of Size = (4) -- vaddr (0x7fffffffecf8) -- paddr (0xc5cf8) 

-- Tick (116296000) -- ISN: (81096) : L from (0x7fffffffecf8) -- of Size = (4) -- vaddr (0x7fffffffecf8) -- paddr (0xc5cf8) 

-- Tick (116296000) -- ISN: (81103) : L from (0x7fffffffecf8) -- of Size = (4) -- vaddr (0x7fffffffecf8) -- paddr (0xc5cf8) 

-- Tick (116298000) -- ISN: (81102) : S -> (0x0) at (0x6bc4c0) -- Size = (4) -- vaddr (0x6bc4c0) -- paddr (0xbc4c0) 

-- Tick (116338000) -- ISN: (81106) : S -> (0x21) at (0x7fffffffecf8) -- Size = (4) -- vaddr (0x7fffffffecf8) -- paddr (0xc5cf8) 

-- Tick (116338500) -- ISN: (81107) : L from (0x7fffffffecf8) -- of Size = (4) -- vaddr (0x7fffffffecf8) -- paddr (0xc5cf8) 

-- Tick (116339000) -- ISN: (81113) : L from (0x7fffffffecf8) -- of Size = (4) -- vaddr (0x7fffffffecf8) -- paddr (0xc5cf8) 

-- Tick (116339000) -- ISN: (81120) : L from (0x7fffffffecf8) -- of Size = (4) -- vaddr (0x7fffffffecf8) -- paddr (0xc5cf8) 

-- Tick (116340500) -- ISN: (81123) : S -> (0x22) at (0x7fffffffecf8) -- Size = (4) -- vaddr (0x7fffffffecf8) -- paddr (0xc5cf8) 

-- Tick (116341000) -- ISN: (81119) : S -> (0x0) at (0x6bc4c4) -- Size = (4) -- vaddr (0x6bc4c4) -- paddr (0xbc4c4) 

-- Tick (116341000) -- ISN: (81124) : L from (0x7fffffffecf8) -- of Size = (4) -- vaddr (0x7fffffffecf8) -- paddr (0xc5cf8) 

-- Tick (116341000) -- ISN: (81130) : L from (0x7fffffffecf8) -- of Size = (4) -- vaddr (0x7fffffffecf8) -- paddr (0xc5cf8) 

-- Tick (116341500) -- ISN: (81137) : L from (0x7fffffffecf8) -- of Size = (4) -- vaddr (0x7fffffffecf8) -- paddr (0xc5cf8) 

-- Tick (116343000) -- ISN: (81136) : S -> (0x0) at (0x6bc4c8) -- Size = (4) -- vaddr (0x6bc4c8) -- paddr (0xbc4c8) 

-- Tick (116343000) -- ISN: (81140) : S -> (0x23) at (0x7fffffffecf8) -- Size = (4) -- vaddr (0x7fffffffecf8) -- paddr (0xc5cf8) 

-- Tick (116343500) -- ISN: (81141) : L from (0x7fffffffecf8) -- of Size = (4) -- vaddr (0x7fffffffecf8) -- paddr (0xc5cf8) 

-- Tick (116343500) -- ISN: (81147) : L from (0x7fffffffecf8) -- of Size = (4) -- vaddr (0x7fffffffecf8) -- paddr (0xc5cf8) 

-- Tick (116343500) -- ISN: (81154) : L from (0x7fffffffecf8) -- of Size = (4) -- vaddr (0x7fffffffecf8) -- paddr (0xc5cf8) 

-- Tick (116345000) -- ISN: (81157) : S -> (0x24) at (0x7fffffffecf8) -- Size = (4) -- vaddr (0x7fffffffecf8) -- paddr (0xc5cf8) 

-- Tick (116345500) -- ISN: (81153) : S -> (0x0) at (0x6bc4cc) -- Size = (4) -- vaddr (0x6bc4cc) -- paddr (0xbc4cc) 

-- Tick (116345500) -- ISN: (81158) : L from (0x7fffffffecf8) -- of Size = (4) -- vaddr (0x7fffffffecf8) -- paddr (0xc5cf8) 

-- Tick (116345500) -- ISN: (81164) : L from (0x7fffffffecf8) -- of Size = (4) -- vaddr (0x7fffffffecf8) -- paddr (0xc5cf8) 

-- Tick (116345500) -- ISN: (81171) : L from (0x7fffffffecf8) -- of Size = (4) -- vaddr (0x7fffffffecf8) -- paddr (0xc5cf8) 

-- Tick (116347000) -- ISN: (81174) : S -> (0x25) at (0x7fffffffecf8) -- Size = (4) -- vaddr (0x7fffffffecf8) -- paddr (0xc5cf8) 

-- Tick (116347500) -- ISN: (81170) : S -> (0x0) at (0x6bc4d0) -- Size = (4) -- vaddr (0x6bc4d0) -- paddr (0xbc4d0) 

-- Tick (116347500) -- ISN: (81175) : L from (0x7fffffffecf8) -- of Size = (4) -- vaddr (0x7fffffffecf8) -- paddr (0xc5cf8) 

-- Tick (116347500) -- ISN: (81181) : L from (0x7fffffffecf8) -- of Size = (4) -- vaddr (0x7fffffffecf8) -- paddr (0xc5cf8) 

-- Tick (116347500) -- ISN: (81188) : L from (0x7fffffffecf8) -- of Size = (4) -- vaddr (0x7fffffffecf8) -- paddr (0xc5cf8) 

-- Tick (116349000) -- ISN: (81191) : S -> (0x26) at (0x7fffffffecf8) -- Size = (4) -- vaddr (0x7fffffffecf8) -- paddr (0xc5cf8) 

-- Tick (116349500) -- ISN: (81187) : S -> (0x0) at (0x6bc4d4) -- Size = (4) -- vaddr (0x6bc4d4) -- paddr (0xbc4d4) 

-- Tick (116349500) -- ISN: (81192) : L from (0x7fffffffecf8) -- of Size = (4) -- vaddr (0x7fffffffecf8) -- paddr (0xc5cf8) 

-- Tick (116349500) -- ISN: (81198) : L from (0x7fffffffecf8) -- of Size = (4) -- vaddr (0x7fffffffecf8) -- paddr (0xc5cf8) 

-- Tick (116349500) -- ISN: (81205) : L from (0x7fffffffecf8) -- of Size = (4) -- vaddr (0x7fffffffecf8) -- paddr (0xc5cf8) 

-- Tick (116351000) -- ISN: (81208) : S -> (0x27) at (0x7fffffffecf8) -- Size = (4) -- vaddr (0x7fffffffecf8) -- paddr (0xc5cf8) 

-- Tick (116351500) -- ISN: (81204) : S -> (0x0) at (0x6bc4d8) -- Size = (4) -- vaddr (0x6bc4d8) -- paddr (0xbc4d8) 

-- Tick (116351500) -- ISN: (81209) : L from (0x7fffffffecf8) -- of Size = (4) -- vaddr (0x7fffffffecf8) -- paddr (0xc5cf8) 

-- Tick (116351500) -- ISN: (81215) : L from (0x7fffffffecf8) -- of Size = (4) -- vaddr (0x7fffffffecf8) -- paddr (0xc5cf8) 

-- Tick (116351500) -- ISN: (81222) : L from (0x7fffffffecf8) -- of Size = (4) -- vaddr (0x7fffffffecf8) -- paddr (0xc5cf8) 

-- Tick (116353000) -- ISN: (81225) : S -> (0x28) at (0x7fffffffecf8) -- Size = (4) -- vaddr (0x7fffffffecf8) -- paddr (0xc5cf8) 

-- Tick (116353500) -- ISN: (81221) : S -> (0x0) at (0x6bc4dc) -- Size = (4) -- vaddr (0x6bc4dc) -- paddr (0xbc4dc) 

-- Tick (116353500) -- ISN: (81226) : L from (0x7fffffffecf8) -- of Size = (4) -- vaddr (0x7fffffffecf8) -- paddr (0xc5cf8) 

-- Tick (116353500) -- ISN: (81232) : L from (0x7fffffffecf8) -- of Size = (4) -- vaddr (0x7fffffffecf8) -- paddr (0xc5cf8) 

-- Tick (116353500) -- ISN: (81239) : L from (0x7fffffffecf8) -- of Size = (4) -- vaddr (0x7fffffffecf8) -- paddr (0xc5cf8) 

-- Tick (116355000) -- ISN: (81242) : S -> (0x29) at (0x7fffffffecf8) -- Size = (4) -- vaddr (0x7fffffffecf8) -- paddr (0xc5cf8) 

-- Tick (116355500) -- ISN: (81238) : S -> (0x0) at (0x6bc4e0) -- Size = (4) -- vaddr (0x6bc4e0) -- paddr (0xbc4e0) 

-- Tick (116355500) -- ISN: (81243) : L from (0x7fffffffecf8) -- of Size = (4) -- vaddr (0x7fffffffecf8) -- paddr (0xc5cf8) 

-- Tick (116355500) -- ISN: (81249) : L from (0x7fffffffecf8) -- of Size = (4) -- vaddr (0x7fffffffecf8) -- paddr (0xc5cf8) 

-- Tick (116355500) -- ISN: (81256) : L from (0x7fffffffecf8) -- of Size = (4) -- vaddr (0x7fffffffecf8) -- paddr (0xc5cf8) 

-- Tick (116357000) -- ISN: (81259) : S -> (0x2a) at (0x7fffffffecf8) -- Size = (4) -- vaddr (0x7fffffffecf8) -- paddr (0xc5cf8) 

-- Tick (116357500) -- ISN: (81255) : S -> (0x0) at (0x6bc4e4) -- Size = (4) -- vaddr (0x6bc4e4) -- paddr (0xbc4e4) 

-- Tick (116357500) -- ISN: (81260) : L from (0x7fffffffecf8) -- of Size = (4) -- vaddr (0x7fffffffecf8) -- paddr (0xc5cf8) 

-- Tick (116357500) -- ISN: (81266) : L from (0x7fffffffecf8) -- of Size = (4) -- vaddr (0x7fffffffecf8) -- paddr (0xc5cf8) 

-- Tick (116358000) -- ISN: (81273) : L from (0x7fffffffecf8) -- of Size = (4) -- vaddr (0x7fffffffecf8) -- paddr (0xc5cf8) 

-- Tick (116359500) -- ISN: (81272) : S -> (0x0) at (0x6bc4e8) -- Size = (4) -- vaddr (0x6bc4e8) -- paddr (0xbc4e8) 

-- Tick (116359500) -- ISN: (81276) : S -> (0x2b) at (0x7fffffffecf8) -- Size = (4) -- vaddr (0x7fffffffecf8) -- paddr (0xc5cf8) 

-- Tick (116360000) -- ISN: (81277) : L from (0x7fffffffecf8) -- of Size = (4) -- vaddr (0x7fffffffecf8) -- paddr (0xc5cf8) 

-- Tick (116360000) -- ISN: (81283) : L from (0x7fffffffecf8) -- of Size = (4) -- vaddr (0x7fffffffecf8) -- paddr (0xc5cf8) 

-- Tick (116360000) -- ISN: (81290) : L from (0x7fffffffecf8) -- of Size = (4) -- vaddr (0x7fffffffecf8) -- paddr (0xc5cf8) 

-- Tick (116361500) -- ISN: (81293) : S -> (0x2c) at (0x7fffffffecf8) -- Size = (4) -- vaddr (0x7fffffffecf8) -- paddr (0xc5cf8) 

-- Tick (116362000) -- ISN: (81289) : S -> (0x0) at (0x6bc4ec) -- Size = (4) -- vaddr (0x6bc4ec) -- paddr (0xbc4ec) 

-- Tick (116362000) -- ISN: (81294) : L from (0x7fffffffecf8) -- of Size = (4) -- vaddr (0x7fffffffecf8) -- paddr (0xc5cf8) 

-- Tick (116362000) -- ISN: (81300) : L from (0x7fffffffecf8) -- of Size = (4) -- vaddr (0x7fffffffecf8) -- paddr (0xc5cf8) 

-- Tick (116362000) -- ISN: (81307) : L from (0x7fffffffecf8) -- of Size = (4) -- vaddr (0x7fffffffecf8) -- paddr (0xc5cf8) 

-- Tick (116363500) -- ISN: (81310) : S -> (0x2d) at (0x7fffffffecf8) -- Size = (4) -- vaddr (0x7fffffffecf8) -- paddr (0xc5cf8) 

-- Tick (116364000) -- ISN: (81306) : S -> (0x0) at (0x6bc4f0) -- Size = (4) -- vaddr (0x6bc4f0) -- paddr (0xbc4f0) 

-- Tick (116364000) -- ISN: (81311) : L from (0x7fffffffecf8) -- of Size = (4) -- vaddr (0x7fffffffecf8) -- paddr (0xc5cf8) 

-- Tick (116364000) -- ISN: (81317) : L from (0x7fffffffecf8) -- of Size = (4) -- vaddr (0x7fffffffecf8) -- paddr (0xc5cf8) 

-- Tick (116364000) -- ISN: (81324) : L from (0x7fffffffecf8) -- of Size = (4) -- vaddr (0x7fffffffecf8) -- paddr (0xc5cf8) 

-- Tick (116365500) -- ISN: (81327) : S -> (0x2e) at (0x7fffffffecf8) -- Size = (4) -- vaddr (0x7fffffffecf8) -- paddr (0xc5cf8) 

-- Tick (116366000) -- ISN: (81323) : S -> (0x0) at (0x6bc4f4) -- Size = (4) -- vaddr (0x6bc4f4) -- paddr (0xbc4f4) 

-- Tick (116366000) -- ISN: (81328) : L from (0x7fffffffecf8) -- of Size = (4) -- vaddr (0x7fffffffecf8) -- paddr (0xc5cf8) 

-- Tick (116366000) -- ISN: (81334) : L from (0x7fffffffecf8) -- of Size = (4) -- vaddr (0x7fffffffecf8) -- paddr (0xc5cf8) 

-- Tick (116366000) -- ISN: (81341) : L from (0x7fffffffecf8) -- of Size = (4) -- vaddr (0x7fffffffecf8) -- paddr (0xc5cf8) 

-- Tick (116367500) -- ISN: (81344) : S -> (0x2f) at (0x7fffffffecf8) -- Size = (4) -- vaddr (0x7fffffffecf8) -- paddr (0xc5cf8) 

-- Tick (116368000) -- ISN: (81340) : S -> (0x0) at (0x6bc4f8) -- Size = (4) -- vaddr (0x6bc4f8) -- paddr (0xbc4f8) 

-- Tick (116368000) -- ISN: (81345) : L from (0x7fffffffecf8) -- of Size = (4) -- vaddr (0x7fffffffecf8) -- paddr (0xc5cf8) 

-- Tick (116368000) -- ISN: (81351) : L from (0x7fffffffecf8) -- of Size = (4) -- vaddr (0x7fffffffecf8) -- paddr (0xc5cf8) 

-- Tick (116368000) -- ISN: (81358) : L from (0x7fffffffecf8) -- of Size = (4) -- vaddr (0x7fffffffecf8) -- paddr (0xc5cf8) 

-- Tick (116369500) -- ISN: (81361) : S -> (0x30) at (0x7fffffffecf8) -- Size = (4) -- vaddr (0x7fffffffecf8) -- paddr (0xc5cf8) 

-- Tick (116370000) -- ISN: (81357) : S -> (0x0) at (0x6bc4fc) -- Size = (4) -- vaddr (0x6bc4fc) -- paddr (0xbc4fc) 

-- Tick (116370000) -- ISN: (81362) : L from (0x7fffffffecf8) -- of Size = (4) -- vaddr (0x7fffffffecf8) -- paddr (0xc5cf8) 

-- Tick (116370000) -- ISN: (81368) : L from (0x7fffffffecf8) -- of Size = (4) -- vaddr (0x7fffffffecf8) -- paddr (0xc5cf8) 

-- Tick (116370000) -- ISN: (81375) : L from (0x7fffffffecf8) -- of Size = (4) -- vaddr (0x7fffffffecf8) -- paddr (0xc5cf8) 

-- Tick (116372000) -- ISN: (81374) : S -> (0x0) at (0x6bc500) -- Size = (4) -- vaddr (0x6bc500) -- paddr (0xbc500) 

-- Tick (116420000) -- ISN: (81378) : S -> (0x31) at (0x7fffffffecf8) -- Size = (4) -- vaddr (0x7fffffffecf8) -- paddr (0xc5cf8) 

-- Tick (116420500) -- ISN: (81379) : L from (0x7fffffffecf8) -- of Size = (4) -- vaddr (0x7fffffffecf8) -- paddr (0xc5cf8) 

-- Tick (116420500) -- ISN: (81385) : L from (0x7fffffffecf8) -- of Size = (4) -- vaddr (0x7fffffffecf8) -- paddr (0xc5cf8) 

-- Tick (116444500) -- ISN: (81391) : S -> (0x0) at (0x6bc504) -- Size = (4) -- vaddr (0x6bc504) -- paddr (0xbc504) 

-- Tick (116444500) -- ISN: (81392) : L from (0x7fffffffecf8) -- of Size = (4) -- vaddr (0x7fffffffecf8) -- paddr (0xc5cf8) 

-- Tick (116472000) -- ISN: (81395) : S -> (0x32) at (0x7fffffffecf8) -- Size = (4) -- vaddr (0x7fffffffecf8) -- paddr (0xc5cf8) 

-- Tick (116472500) -- ISN: (81396) : L from (0x7fffffffecf8) -- of Size = (4) -- vaddr (0x7fffffffecf8) -- paddr (0xc5cf8) 

-- Tick (116472500) -- ISN: (81402) : L from (0x7fffffffecf8) -- of Size = (4) -- vaddr (0x7fffffffecf8) -- paddr (0xc5cf8) 

-- Tick (116496500) -- ISN: (81408) : S -> (0x0) at (0x6bc508) -- Size = (4) -- vaddr (0x6bc508) -- paddr (0xbc508) 

-- Tick (116496500) -- ISN: (81409) : L from (0x7fffffffecf8) -- of Size = (4) -- vaddr (0x7fffffffecf8) -- paddr (0xc5cf8) 

-- Tick (116524000) -- ISN: (81412) : S -> (0x33) at (0x7fffffffecf8) -- Size = (4) -- vaddr (0x7fffffffecf8) -- paddr (0xc5cf8) 

-- Tick (116524500) -- ISN: (81413) : L from (0x7fffffffecf8) -- of Size = (4) -- vaddr (0x7fffffffecf8) -- paddr (0xc5cf8) 

-- Tick (116525000) -- ISN: (81419) : L from (0x7fffffffecf8) -- of Size = (4) -- vaddr (0x7fffffffecf8) -- paddr (0xc5cf8) 

-- Tick (116548500) -- ISN: (81425) : S -> (0x0) at (0x6bc50c) -- Size = (4) -- vaddr (0x6bc50c) -- paddr (0xbc50c) 

-- Tick (116548500) -- ISN: (81426) : L from (0x7fffffffecf8) -- of Size = (4) -- vaddr (0x7fffffffecf8) -- paddr (0xc5cf8) 

-- Tick (116576000) -- ISN: (81429) : S -> (0x34) at (0x7fffffffecf8) -- Size = (4) -- vaddr (0x7fffffffecf8) -- paddr (0xc5cf8) 

-- Tick (116576500) -- ISN: (81430) : L from (0x7fffffffecf8) -- of Size = (4) -- vaddr (0x7fffffffecf8) -- paddr (0xc5cf8) 

-- Tick (116577000) -- ISN: (81436) : L from (0x7fffffffecf8) -- of Size = (4) -- vaddr (0x7fffffffecf8) -- paddr (0xc5cf8) 

-- Tick (116600500) -- ISN: (81442) : S -> (0x0) at (0x6bc510) -- Size = (4) -- vaddr (0x6bc510) -- paddr (0xbc510) 

-- Tick (116600500) -- ISN: (81443) : L from (0x7fffffffecf8) -- of Size = (4) -- vaddr (0x7fffffffecf8) -- paddr (0xc5cf8) 

-- Tick (116628000) -- ISN: (81446) : S -> (0x35) at (0x7fffffffecf8) -- Size = (4) -- vaddr (0x7fffffffecf8) -- paddr (0xc5cf8) 

-- Tick (116628500) -- ISN: (81447) : L from (0x7fffffffecf8) -- of Size = (4) -- vaddr (0x7fffffffecf8) -- paddr (0xc5cf8) 

-- Tick (116629000) -- ISN: (81453) : L from (0x7fffffffecf8) -- of Size = (4) -- vaddr (0x7fffffffecf8) -- paddr (0xc5cf8) 

-- Tick (116652500) -- ISN: (81459) : S -> (0x0) at (0x6bc514) -- Size = (4) -- vaddr (0x6bc514) -- paddr (0xbc514) 

-- Tick (116652500) -- ISN: (81460) : L from (0x7fffffffecf8) -- of Size = (4) -- vaddr (0x7fffffffecf8) -- paddr (0xc5cf8) 

-- Tick (116680000) -- ISN: (81463) : S -> (0x36) at (0x7fffffffecf8) -- Size = (4) -- vaddr (0x7fffffffecf8) -- paddr (0xc5cf8) 

-- Tick (116680500) -- ISN: (81464) : L from (0x7fffffffecf8) -- of Size = (4) -- vaddr (0x7fffffffecf8) -- paddr (0xc5cf8) 

-- Tick (116681000) -- ISN: (81470) : L from (0x7fffffffecf8) -- of Size = (4) -- vaddr (0x7fffffffecf8) -- paddr (0xc5cf8) 

-- Tick (116704500) -- ISN: (81476) : S -> (0x0) at (0x6bc518) -- Size = (4) -- vaddr (0x6bc518) -- paddr (0xbc518) 

-- Tick (116704500) -- ISN: (81477) : L from (0x7fffffffecf8) -- of Size = (4) -- vaddr (0x7fffffffecf8) -- paddr (0xc5cf8) 

-- Tick (116732000) -- ISN: (81480) : S -> (0x37) at (0x7fffffffecf8) -- Size = (4) -- vaddr (0x7fffffffecf8) -- paddr (0xc5cf8) 

-- Tick (116733000) -- ISN: (81481) : L from (0x7fffffffecf8) -- of Size = (4) -- vaddr (0x7fffffffecf8) -- paddr (0xc5cf8) 

-- Tick (116733000) -- ISN: (81487) : L from (0x7fffffffecf8) -- of Size = (4) -- vaddr (0x7fffffffecf8) -- paddr (0xc5cf8) 

-- Tick (116756500) -- ISN: (81493) : S -> (0x0) at (0x6bc51c) -- Size = (4) -- vaddr (0x6bc51c) -- paddr (0xbc51c) 

-- Tick (116756500) -- ISN: (81494) : L from (0x7fffffffecf8) -- of Size = (4) -- vaddr (0x7fffffffecf8) -- paddr (0xc5cf8) 

-- Tick (116784000) -- ISN: (81497) : S -> (0x38) at (0x7fffffffecf8) -- Size = (4) -- vaddr (0x7fffffffecf8) -- paddr (0xc5cf8) 

-- Tick (116784500) -- ISN: (81498) : L from (0x7fffffffecf8) -- of Size = (4) -- vaddr (0x7fffffffecf8) -- paddr (0xc5cf8) 

-- Tick (116784500) -- ISN: (81504) : L from (0x7fffffffecf8) -- of Size = (4) -- vaddr (0x7fffffffecf8) -- paddr (0xc5cf8) 

-- Tick (116808500) -- ISN: (81510) : S -> (0x0) at (0x6bc520) -- Size = (4) -- vaddr (0x6bc520) -- paddr (0xbc520) 

-- Tick (116808500) -- ISN: (81511) : L from (0x7fffffffecf8) -- of Size = (4) -- vaddr (0x7fffffffecf8) -- paddr (0xc5cf8) 

-- Tick (116836000) -- ISN: (81514) : S -> (0x39) at (0x7fffffffecf8) -- Size = (4) -- vaddr (0x7fffffffecf8) -- paddr (0xc5cf8) 

-- Tick (116836500) -- ISN: (81515) : L from (0x7fffffffecf8) -- of Size = (4) -- vaddr (0x7fffffffecf8) -- paddr (0xc5cf8) 

-- Tick (116836500) -- ISN: (81521) : L from (0x7fffffffecf8) -- of Size = (4) -- vaddr (0x7fffffffecf8) -- paddr (0xc5cf8) 

-- Tick (116860500) -- ISN: (81527) : S -> (0x0) at (0x6bc524) -- Size = (4) -- vaddr (0x6bc524) -- paddr (0xbc524) 

-- Tick (116860500) -- ISN: (81528) : L from (0x7fffffffecf8) -- of Size = (4) -- vaddr (0x7fffffffecf8) -- paddr (0xc5cf8) 

-- Tick (116888000) -- ISN: (81531) : S -> (0x3a) at (0x7fffffffecf8) -- Size = (4) -- vaddr (0x7fffffffecf8) -- paddr (0xc5cf8) 

-- Tick (116888500) -- ISN: (81532) : L from (0x7fffffffecf8) -- of Size = (4) -- vaddr (0x7fffffffecf8) -- paddr (0xc5cf8) 

-- Tick (116889000) -- ISN: (81538) : L from (0x7fffffffecf8) -- of Size = (4) -- vaddr (0x7fffffffecf8) -- paddr (0xc5cf8) 

-- Tick (116912500) -- ISN: (81544) : S -> (0x0) at (0x6bc528) -- Size = (4) -- vaddr (0x6bc528) -- paddr (0xbc528) 

-- Tick (116912500) -- ISN: (81545) : L from (0x7fffffffecf8) -- of Size = (4) -- vaddr (0x7fffffffecf8) -- paddr (0xc5cf8) 

-- Tick (116940000) -- ISN: (81548) : S -> (0x3b) at (0x7fffffffecf8) -- Size = (4) -- vaddr (0x7fffffffecf8) -- paddr (0xc5cf8) 

-- Tick (116940500) -- ISN: (81549) : L from (0x7fffffffecf8) -- of Size = (4) -- vaddr (0x7fffffffecf8) -- paddr (0xc5cf8) 

-- Tick (116941000) -- ISN: (81555) : L from (0x7fffffffecf8) -- of Size = (4) -- vaddr (0x7fffffffecf8) -- paddr (0xc5cf8) 

-- Tick (116966000) -- ISN: (81561) : S -> (0x0) at (0x6bc52c) -- Size = (4) -- vaddr (0x6bc52c) -- paddr (0xbc52c) 

-- Tick (116966000) -- ISN: (81562) : L from (0x7fffffffecf8) -- of Size = (4) -- vaddr (0x7fffffffecf8) -- paddr (0xc5cf8) 

-- Tick (116990500) -- ISN: (81565) : S -> (0x3c) at (0x7fffffffecf8) -- Size = (4) -- vaddr (0x7fffffffecf8) -- paddr (0xc5cf8) 

-- Tick (116991000) -- ISN: (81566) : L from (0x7fffffffecf8) -- of Size = (4) -- vaddr (0x7fffffffecf8) -- paddr (0xc5cf8) 

-- Tick (116991000) -- ISN: (81572) : L from (0x7fffffffecf8) -- of Size = (4) -- vaddr (0x7fffffffecf8) -- paddr (0xc5cf8) 

-- Tick (117018000) -- ISN: (81578) : S -> (0x0) at (0x6bc530) -- Size = (4) -- vaddr (0x6bc530) -- paddr (0xbc530) 

-- Tick (117018000) -- ISN: (81579) : L from (0x7fffffffecf8) -- of Size = (4) -- vaddr (0x7fffffffecf8) -- paddr (0xc5cf8) 

-- Tick (117042500) -- ISN: (81582) : S -> (0x3d) at (0x7fffffffecf8) -- Size = (4) -- vaddr (0x7fffffffecf8) -- paddr (0xc5cf8) 

-- Tick (117043000) -- ISN: (81583) : L from (0x7fffffffecf8) -- of Size = (4) -- vaddr (0x7fffffffecf8) -- paddr (0xc5cf8) 

-- Tick (117043000) -- ISN: (81589) : L from (0x7fffffffecf8) -- of Size = (4) -- vaddr (0x7fffffffecf8) -- paddr (0xc5cf8) 

-- Tick (117070000) -- ISN: (81595) : S -> (0x0) at (0x6bc534) -- Size = (4) -- vaddr (0x6bc534) -- paddr (0xbc534) 

-- Tick (117070000) -- ISN: (81596) : L from (0x7fffffffecf8) -- of Size = (4) -- vaddr (0x7fffffffecf8) -- paddr (0xc5cf8) 

-- Tick (117094500) -- ISN: (81599) : S -> (0x3e) at (0x7fffffffecf8) -- Size = (4) -- vaddr (0x7fffffffecf8) -- paddr (0xc5cf8) 

-- Tick (117095000) -- ISN: (81600) : L from (0x7fffffffecf8) -- of Size = (4) -- vaddr (0x7fffffffecf8) -- paddr (0xc5cf8) 

-- Tick (117095000) -- ISN: (81606) : L from (0x7fffffffecf8) -- of Size = (4) -- vaddr (0x7fffffffecf8) -- paddr (0xc5cf8) 

-- Tick (117122000) -- ISN: (81612) : S -> (0x0) at (0x6bc538) -- Size = (4) -- vaddr (0x6bc538) -- paddr (0xbc538) 

-- Tick (117122000) -- ISN: (81613) : L from (0x7fffffffecf8) -- of Size = (4) -- vaddr (0x7fffffffecf8) -- paddr (0xc5cf8) 

-- Tick (117146500) -- ISN: (81616) : S -> (0x3f) at (0x7fffffffecf8) -- Size = (4) -- vaddr (0x7fffffffecf8) -- paddr (0xc5cf8) 

-- Tick (117147000) -- ISN: (81617) : L from (0x7fffffffecf8) -- of Size = (4) -- vaddr (0x7fffffffecf8) -- paddr (0xc5cf8) 

-- Tick (117147000) -- ISN: (81623) : L from (0x7fffffffecf8) -- of Size = (4) -- vaddr (0x7fffffffecf8) -- paddr (0xc5cf8) 

-- Tick (117174000) -- ISN: (81629) : S -> (0x0) at (0x6bc53c) -- Size = (4) -- vaddr (0x6bc53c) -- paddr (0xbc53c) 

-- Tick (117174000) -- ISN: (81630) : L from (0x7fffffffecf8) -- of Size = (4) -- vaddr (0x7fffffffecf8) -- paddr (0xc5cf8) 

-- Tick (117198500) -- ISN: (81633) : S -> (0x40) at (0x7fffffffecf8) -- Size = (4) -- vaddr (0x7fffffffecf8) -- paddr (0xc5cf8) 

-- Tick (117199000) -- ISN: (81634) : L from (0x7fffffffecf8) -- of Size = (4) -- vaddr (0x7fffffffecf8) -- paddr (0xc5cf8) 

-- Tick (117199000) -- ISN: (81640) : L from (0x7fffffffecf8) -- of Size = (4) -- vaddr (0x7fffffffecf8) -- paddr (0xc5cf8) 

-- Tick (117226000) -- ISN: (81646) : S -> (0x0) at (0x6bc540) -- Size = (4) -- vaddr (0x6bc540) -- paddr (0xbc540) 

-- Tick (117226000) -- ISN: (81647) : L from (0x7fffffffecf8) -- of Size = (4) -- vaddr (0x7fffffffecf8) -- paddr (0xc5cf8) 

-- Tick (117293500) -- ISN: (81650) : S -> (0x41) at (0x7fffffffecf8) -- Size = (4) -- vaddr (0x7fffffffecf8) -- paddr (0xc5cf8) 

-- Tick (117294000) -- ISN: (81651) : L from (0x7fffffffecf8) -- of Size = (4) -- vaddr (0x7fffffffecf8) -- paddr (0xc5cf8) 

-- Tick (117294000) -- ISN: (81657) : L from (0x7fffffffecf8) -- of Size = (4) -- vaddr (0x7fffffffecf8) -- paddr (0xc5cf8) 

-- Tick (117296000) -- ISN: (81663) : S -> (0x0) at (0x6bc544) -- Size = (4) -- vaddr (0x6bc544) -- paddr (0xbc544) 

-- Tick (117296000) -- ISN: (81664) : L from (0x7fffffffecf8) -- of Size = (4) -- vaddr (0x7fffffffecf8) -- paddr (0xc5cf8) 

-- Tick (117297500) -- ISN: (81667) : S -> (0x42) at (0x7fffffffecf8) -- Size = (4) -- vaddr (0x7fffffffecf8) -- paddr (0xc5cf8) 

-- Tick (117298000) -- ISN: (81668) : L from (0x7fffffffecf8) -- of Size = (4) -- vaddr (0x7fffffffecf8) -- paddr (0xc5cf8) 

-- Tick (117298000) -- ISN: (81674) : L from (0x7fffffffecf8) -- of Size = (4) -- vaddr (0x7fffffffecf8) -- paddr (0xc5cf8) 

-- Tick (117299000) -- ISN: (81681) : L from (0x7fffffffecf8) -- of Size = (4) -- vaddr (0x7fffffffecf8) -- paddr (0xc5cf8) 

-- Tick (117300000) -- ISN: (81680) : S -> (0x0) at (0x6bc548) -- Size = (4) -- vaddr (0x6bc548) -- paddr (0xbc548) 

-- Tick (117300500) -- ISN: (81684) : S -> (0x43) at (0x7fffffffecf8) -- Size = (4) -- vaddr (0x7fffffffecf8) -- paddr (0xc5cf8) 

-- Tick (117301000) -- ISN: (81685) : L from (0x7fffffffecf8) -- of Size = (4) -- vaddr (0x7fffffffecf8) -- paddr (0xc5cf8) 

-- Tick (117301000) -- ISN: (81691) : L from (0x7fffffffecf8) -- of Size = (4) -- vaddr (0x7fffffffecf8) -- paddr (0xc5cf8) 

-- Tick (117301000) -- ISN: (81698) : L from (0x7fffffffecf8) -- of Size = (4) -- vaddr (0x7fffffffecf8) -- paddr (0xc5cf8) 

-- Tick (117302500) -- ISN: (81701) : S -> (0x44) at (0x7fffffffecf8) -- Size = (4) -- vaddr (0x7fffffffecf8) -- paddr (0xc5cf8) 

-- Tick (117303000) -- ISN: (81697) : S -> (0x0) at (0x6bc54c) -- Size = (4) -- vaddr (0x6bc54c) -- paddr (0xbc54c) 

-- Tick (117303000) -- ISN: (81702) : L from (0x7fffffffecf8) -- of Size = (4) -- vaddr (0x7fffffffecf8) -- paddr (0xc5cf8) 

-- Tick (117303000) -- ISN: (81708) : L from (0x7fffffffecf8) -- of Size = (4) -- vaddr (0x7fffffffecf8) -- paddr (0xc5cf8) 

-- Tick (117303000) -- ISN: (81715) : L from (0x7fffffffecf8) -- of Size = (4) -- vaddr (0x7fffffffecf8) -- paddr (0xc5cf8) 

-- Tick (117304500) -- ISN: (81718) : S -> (0x45) at (0x7fffffffecf8) -- Size = (4) -- vaddr (0x7fffffffecf8) -- paddr (0xc5cf8) 

-- Tick (117305000) -- ISN: (81714) : S -> (0x0) at (0x6bc550) -- Size = (4) -- vaddr (0x6bc550) -- paddr (0xbc550) 

-- Tick (117305000) -- ISN: (81719) : L from (0x7fffffffecf8) -- of Size = (4) -- vaddr (0x7fffffffecf8) -- paddr (0xc5cf8) 

-- Tick (117305000) -- ISN: (81725) : L from (0x7fffffffecf8) -- of Size = (4) -- vaddr (0x7fffffffecf8) -- paddr (0xc5cf8) 

-- Tick (117305000) -- ISN: (81732) : L from (0x7fffffffecf8) -- of Size = (4) -- vaddr (0x7fffffffecf8) -- paddr (0xc5cf8) 

-- Tick (117306500) -- ISN: (81735) : S -> (0x46) at (0x7fffffffecf8) -- Size = (4) -- vaddr (0x7fffffffecf8) -- paddr (0xc5cf8) 

-- Tick (117307000) -- ISN: (81731) : S -> (0x0) at (0x6bc554) -- Size = (4) -- vaddr (0x6bc554) -- paddr (0xbc554) 

-- Tick (117307000) -- ISN: (81736) : L from (0x7fffffffecf8) -- of Size = (4) -- vaddr (0x7fffffffecf8) -- paddr (0xc5cf8) 

-- Tick (117307000) -- ISN: (81742) : L from (0x7fffffffecf8) -- of Size = (4) -- vaddr (0x7fffffffecf8) -- paddr (0xc5cf8) 

-- Tick (117307000) -- ISN: (81749) : L from (0x7fffffffecf8) -- of Size = (4) -- vaddr (0x7fffffffecf8) -- paddr (0xc5cf8) 

-- Tick (117308500) -- ISN: (81752) : S -> (0x47) at (0x7fffffffecf8) -- Size = (4) -- vaddr (0x7fffffffecf8) -- paddr (0xc5cf8) 

-- Tick (117309000) -- ISN: (81748) : S -> (0x0) at (0x6bc558) -- Size = (4) -- vaddr (0x6bc558) -- paddr (0xbc558) 

-- Tick (117309000) -- ISN: (81753) : L from (0x7fffffffecf8) -- of Size = (4) -- vaddr (0x7fffffffecf8) -- paddr (0xc5cf8) 

-- Tick (117309000) -- ISN: (81759) : L from (0x7fffffffecf8) -- of Size = (4) -- vaddr (0x7fffffffecf8) -- paddr (0xc5cf8) 

-- Tick (117309000) -- ISN: (81766) : L from (0x7fffffffecf8) -- of Size = (4) -- vaddr (0x7fffffffecf8) -- paddr (0xc5cf8) 

-- Tick (117310500) -- ISN: (81769) : S -> (0x48) at (0x7fffffffecf8) -- Size = (4) -- vaddr (0x7fffffffecf8) -- paddr (0xc5cf8) 

-- Tick (117311000) -- ISN: (81765) : S -> (0x0) at (0x6bc55c) -- Size = (4) -- vaddr (0x6bc55c) -- paddr (0xbc55c) 

-- Tick (117311000) -- ISN: (81770) : L from (0x7fffffffecf8) -- of Size = (4) -- vaddr (0x7fffffffecf8) -- paddr (0xc5cf8) 

-- Tick (117311000) -- ISN: (81776) : L from (0x7fffffffecf8) -- of Size = (4) -- vaddr (0x7fffffffecf8) -- paddr (0xc5cf8) 

-- Tick (117311000) -- ISN: (81783) : L from (0x7fffffffecf8) -- of Size = (4) -- vaddr (0x7fffffffecf8) -- paddr (0xc5cf8) 

-- Tick (117312500) -- ISN: (81786) : S -> (0x49) at (0x7fffffffecf8) -- Size = (4) -- vaddr (0x7fffffffecf8) -- paddr (0xc5cf8) 

-- Tick (117313000) -- ISN: (81782) : S -> (0x0) at (0x6bc560) -- Size = (4) -- vaddr (0x6bc560) -- paddr (0xbc560) 

-- Tick (117313000) -- ISN: (81787) : L from (0x7fffffffecf8) -- of Size = (4) -- vaddr (0x7fffffffecf8) -- paddr (0xc5cf8) 

-- Tick (117313000) -- ISN: (81793) : L from (0x7fffffffecf8) -- of Size = (4) -- vaddr (0x7fffffffecf8) -- paddr (0xc5cf8) 

-- Tick (117313000) -- ISN: (81800) : L from (0x7fffffffecf8) -- of Size = (4) -- vaddr (0x7fffffffecf8) -- paddr (0xc5cf8) 

-- Tick (117314500) -- ISN: (81803) : S -> (0x4a) at (0x7fffffffecf8) -- Size = (4) -- vaddr (0x7fffffffecf8) -- paddr (0xc5cf8) 

-- Tick (117315000) -- ISN: (81799) : S -> (0x0) at (0x6bc564) -- Size = (4) -- vaddr (0x6bc564) -- paddr (0xbc564) 

-- Tick (117315000) -- ISN: (81804) : L from (0x7fffffffecf8) -- of Size = (4) -- vaddr (0x7fffffffecf8) -- paddr (0xc5cf8) 

-- Tick (117315000) -- ISN: (81810) : L from (0x7fffffffecf8) -- of Size = (4) -- vaddr (0x7fffffffecf8) -- paddr (0xc5cf8) 

-- Tick (117315000) -- ISN: (81817) : L from (0x7fffffffecf8) -- of Size = (4) -- vaddr (0x7fffffffecf8) -- paddr (0xc5cf8) 

-- Tick (117316500) -- ISN: (81820) : S -> (0x4b) at (0x7fffffffecf8) -- Size = (4) -- vaddr (0x7fffffffecf8) -- paddr (0xc5cf8) 

-- Tick (117317000) -- ISN: (81816) : S -> (0x0) at (0x6bc568) -- Size = (4) -- vaddr (0x6bc568) -- paddr (0xbc568) 

-- Tick (117317000) -- ISN: (81821) : L from (0x7fffffffecf8) -- of Size = (4) -- vaddr (0x7fffffffecf8) -- paddr (0xc5cf8) 

-- Tick (117317000) -- ISN: (81827) : L from (0x7fffffffecf8) -- of Size = (4) -- vaddr (0x7fffffffecf8) -- paddr (0xc5cf8) 

-- Tick (117317000) -- ISN: (81834) : L from (0x7fffffffecf8) -- of Size = (4) -- vaddr (0x7fffffffecf8) -- paddr (0xc5cf8) 

-- Tick (117318500) -- ISN: (81837) : S -> (0x4c) at (0x7fffffffecf8) -- Size = (4) -- vaddr (0x7fffffffecf8) -- paddr (0xc5cf8) 

-- Tick (117319000) -- ISN: (81833) : S -> (0x0) at (0x6bc56c) -- Size = (4) -- vaddr (0x6bc56c) -- paddr (0xbc56c) 

-- Tick (117319000) -- ISN: (81838) : L from (0x7fffffffecf8) -- of Size = (4) -- vaddr (0x7fffffffecf8) -- paddr (0xc5cf8) 

-- Tick (117319000) -- ISN: (81844) : L from (0x7fffffffecf8) -- of Size = (4) -- vaddr (0x7fffffffecf8) -- paddr (0xc5cf8) 

-- Tick (117319000) -- ISN: (81851) : L from (0x7fffffffecf8) -- of Size = (4) -- vaddr (0x7fffffffecf8) -- paddr (0xc5cf8) 

-- Tick (117320500) -- ISN: (81854) : S -> (0x4d) at (0x7fffffffecf8) -- Size = (4) -- vaddr (0x7fffffffecf8) -- paddr (0xc5cf8) 

-- Tick (117321000) -- ISN: (81850) : S -> (0x0) at (0x6bc570) -- Size = (4) -- vaddr (0x6bc570) -- paddr (0xbc570) 

-- Tick (117321000) -- ISN: (81855) : L from (0x7fffffffecf8) -- of Size = (4) -- vaddr (0x7fffffffecf8) -- paddr (0xc5cf8) 

-- Tick (117321000) -- ISN: (81861) : L from (0x7fffffffecf8) -- of Size = (4) -- vaddr (0x7fffffffecf8) -- paddr (0xc5cf8) 

-- Tick (117321000) -- ISN: (81868) : L from (0x7fffffffecf8) -- of Size = (4) -- vaddr (0x7fffffffecf8) -- paddr (0xc5cf8) 

-- Tick (117322500) -- ISN: (81871) : S -> (0x4e) at (0x7fffffffecf8) -- Size = (4) -- vaddr (0x7fffffffecf8) -- paddr (0xc5cf8) 

-- Tick (117323000) -- ISN: (81867) : S -> (0x0) at (0x6bc574) -- Size = (4) -- vaddr (0x6bc574) -- paddr (0xbc574) 

-- Tick (117323000) -- ISN: (81872) : L from (0x7fffffffecf8) -- of Size = (4) -- vaddr (0x7fffffffecf8) -- paddr (0xc5cf8) 

-- Tick (117323000) -- ISN: (81878) : L from (0x7fffffffecf8) -- of Size = (4) -- vaddr (0x7fffffffecf8) -- paddr (0xc5cf8) 

-- Tick (117323000) -- ISN: (81885) : L from (0x7fffffffecf8) -- of Size = (4) -- vaddr (0x7fffffffecf8) -- paddr (0xc5cf8) 

-- Tick (117324500) -- ISN: (81888) : S -> (0x4f) at (0x7fffffffecf8) -- Size = (4) -- vaddr (0x7fffffffecf8) -- paddr (0xc5cf8) 

-- Tick (117325000) -- ISN: (81884) : S -> (0x0) at (0x6bc578) -- Size = (4) -- vaddr (0x6bc578) -- paddr (0xbc578) 

-- Tick (117325000) -- ISN: (81889) : L from (0x7fffffffecf8) -- of Size = (4) -- vaddr (0x7fffffffecf8) -- paddr (0xc5cf8) 

-- Tick (117325000) -- ISN: (81895) : L from (0x7fffffffecf8) -- of Size = (4) -- vaddr (0x7fffffffecf8) -- paddr (0xc5cf8) 

-- Tick (117325000) -- ISN: (81902) : L from (0x7fffffffecf8) -- of Size = (4) -- vaddr (0x7fffffffecf8) -- paddr (0xc5cf8) 

-- Tick (117326500) -- ISN: (81905) : S -> (0x50) at (0x7fffffffecf8) -- Size = (4) -- vaddr (0x7fffffffecf8) -- paddr (0xc5cf8) 

-- Tick (117327000) -- ISN: (81901) : S -> (0x0) at (0x6bc57c) -- Size = (4) -- vaddr (0x6bc57c) -- paddr (0xbc57c) 

-- Tick (117327000) -- ISN: (81906) : L from (0x7fffffffecf8) -- of Size = (4) -- vaddr (0x7fffffffecf8) -- paddr (0xc5cf8) 

-- Tick (117327000) -- ISN: (81912) : L from (0x7fffffffecf8) -- of Size = (4) -- vaddr (0x7fffffffecf8) -- paddr (0xc5cf8) 

-- Tick (117327000) -- ISN: (81919) : L from (0x7fffffffecf8) -- of Size = (4) -- vaddr (0x7fffffffecf8) -- paddr (0xc5cf8) 

-- Tick (117329000) -- ISN: (81918) : S -> (0x0) at (0x6bc580) -- Size = (4) -- vaddr (0x6bc580) -- paddr (0xbc580) 

-- Tick (117377000) -- ISN: (81922) : S -> (0x51) at (0x7fffffffecf8) -- Size = (4) -- vaddr (0x7fffffffecf8) -- paddr (0xc5cf8) 

-- Tick (117377500) -- ISN: (81923) : L from (0x7fffffffecf8) -- of Size = (4) -- vaddr (0x7fffffffecf8) -- paddr (0xc5cf8) 

-- Tick (117377500) -- ISN: (81929) : L from (0x7fffffffecf8) -- of Size = (4) -- vaddr (0x7fffffffecf8) -- paddr (0xc5cf8) 

-- Tick (117378000) -- ISN: (81936) : L from (0x7fffffffecf8) -- of Size = (4) -- vaddr (0x7fffffffecf8) -- paddr (0xc5cf8) 

-- Tick (117379500) -- ISN: (81935) : S -> (0x0) at (0x6bc584) -- Size = (4) -- vaddr (0x6bc584) -- paddr (0xbc584) 

-- Tick (117380000) -- ISN: (81939) : S -> (0x52) at (0x7fffffffecf8) -- Size = (4) -- vaddr (0x7fffffffecf8) -- paddr (0xc5cf8) 

-- Tick (117380500) -- ISN: (81940) : L from (0x7fffffffecf8) -- of Size = (4) -- vaddr (0x7fffffffecf8) -- paddr (0xc5cf8) 

-- Tick (117380500) -- ISN: (81946) : L from (0x7fffffffecf8) -- of Size = (4) -- vaddr (0x7fffffffecf8) -- paddr (0xc5cf8) 

-- Tick (117381000) -- ISN: (81953) : L from (0x7fffffffecf8) -- of Size = (4) -- vaddr (0x7fffffffecf8) -- paddr (0xc5cf8) 

-- Tick (117382500) -- ISN: (81952) : S -> (0x0) at (0x6bc588) -- Size = (4) -- vaddr (0x6bc588) -- paddr (0xbc588) 

-- Tick (117382500) -- ISN: (81956) : S -> (0x53) at (0x7fffffffecf8) -- Size = (4) -- vaddr (0x7fffffffecf8) -- paddr (0xc5cf8) 

-- Tick (117383000) -- ISN: (81957) : L from (0x7fffffffecf8) -- of Size = (4) -- vaddr (0x7fffffffecf8) -- paddr (0xc5cf8) 

-- Tick (117383000) -- ISN: (81963) : L from (0x7fffffffecf8) -- of Size = (4) -- vaddr (0x7fffffffecf8) -- paddr (0xc5cf8) 

-- Tick (117383000) -- ISN: (81970) : L from (0x7fffffffecf8) -- of Size = (4) -- vaddr (0x7fffffffecf8) -- paddr (0xc5cf8) 

-- Tick (117384500) -- ISN: (81973) : S -> (0x54) at (0x7fffffffecf8) -- Size = (4) -- vaddr (0x7fffffffecf8) -- paddr (0xc5cf8) 

-- Tick (117385000) -- ISN: (81969) : S -> (0x0) at (0x6bc58c) -- Size = (4) -- vaddr (0x6bc58c) -- paddr (0xbc58c) 

-- Tick (117385000) -- ISN: (81974) : L from (0x7fffffffecf8) -- of Size = (4) -- vaddr (0x7fffffffecf8) -- paddr (0xc5cf8) 

-- Tick (117385000) -- ISN: (81980) : L from (0x7fffffffecf8) -- of Size = (4) -- vaddr (0x7fffffffecf8) -- paddr (0xc5cf8) 

-- Tick (117385000) -- ISN: (81987) : L from (0x7fffffffecf8) -- of Size = (4) -- vaddr (0x7fffffffecf8) -- paddr (0xc5cf8) 

-- Tick (117386500) -- ISN: (81990) : S -> (0x55) at (0x7fffffffecf8) -- Size = (4) -- vaddr (0x7fffffffecf8) -- paddr (0xc5cf8) 

-- Tick (117387000) -- ISN: (81986) : S -> (0x0) at (0x6bc590) -- Size = (4) -- vaddr (0x6bc590) -- paddr (0xbc590) 

-- Tick (117387000) -- ISN: (81991) : L from (0x7fffffffecf8) -- of Size = (4) -- vaddr (0x7fffffffecf8) -- paddr (0xc5cf8) 

-- Tick (117387000) -- ISN: (81997) : L from (0x7fffffffecf8) -- of Size = (4) -- vaddr (0x7fffffffecf8) -- paddr (0xc5cf8) 

-- Tick (117387000) -- ISN: (82004) : L from (0x7fffffffecf8) -- of Size = (4) -- vaddr (0x7fffffffecf8) -- paddr (0xc5cf8) 

-- Tick (117388500) -- ISN: (82007) : S -> (0x56) at (0x7fffffffecf8) -- Size = (4) -- vaddr (0x7fffffffecf8) -- paddr (0xc5cf8) 

-- Tick (117389000) -- ISN: (82003) : S -> (0x0) at (0x6bc594) -- Size = (4) -- vaddr (0x6bc594) -- paddr (0xbc594) 

-- Tick (117389000) -- ISN: (82008) : L from (0x7fffffffecf8) -- of Size = (4) -- vaddr (0x7fffffffecf8) -- paddr (0xc5cf8) 

-- Tick (117389000) -- ISN: (82014) : L from (0x7fffffffecf8) -- of Size = (4) -- vaddr (0x7fffffffecf8) -- paddr (0xc5cf8) 

-- Tick (117389000) -- ISN: (82021) : L from (0x7fffffffecf8) -- of Size = (4) -- vaddr (0x7fffffffecf8) -- paddr (0xc5cf8) 

-- Tick (117390500) -- ISN: (82024) : S -> (0x57) at (0x7fffffffecf8) -- Size = (4) -- vaddr (0x7fffffffecf8) -- paddr (0xc5cf8) 

-- Tick (117391000) -- ISN: (82020) : S -> (0x0) at (0x6bc598) -- Size = (4) -- vaddr (0x6bc598) -- paddr (0xbc598) 

-- Tick (117391000) -- ISN: (82025) : L from (0x7fffffffecf8) -- of Size = (4) -- vaddr (0x7fffffffecf8) -- paddr (0xc5cf8) 

-- Tick (117391000) -- ISN: (82031) : L from (0x7fffffffecf8) -- of Size = (4) -- vaddr (0x7fffffffecf8) -- paddr (0xc5cf8) 

-- Tick (117391000) -- ISN: (82038) : L from (0x7fffffffecf8) -- of Size = (4) -- vaddr (0x7fffffffecf8) -- paddr (0xc5cf8) 

-- Tick (117392500) -- ISN: (82041) : S -> (0x58) at (0x7fffffffecf8) -- Size = (4) -- vaddr (0x7fffffffecf8) -- paddr (0xc5cf8) 

-- Tick (117393000) -- ISN: (82037) : S -> (0x0) at (0x6bc59c) -- Size = (4) -- vaddr (0x6bc59c) -- paddr (0xbc59c) 

-- Tick (117393000) -- ISN: (82042) : L from (0x7fffffffecf8) -- of Size = (4) -- vaddr (0x7fffffffecf8) -- paddr (0xc5cf8) 

-- Tick (117393000) -- ISN: (82048) : L from (0x7fffffffecf8) -- of Size = (4) -- vaddr (0x7fffffffecf8) -- paddr (0xc5cf8) 

-- Tick (117393000) -- ISN: (82055) : L from (0x7fffffffecf8) -- of Size = (4) -- vaddr (0x7fffffffecf8) -- paddr (0xc5cf8) 

-- Tick (117394500) -- ISN: (82058) : S -> (0x59) at (0x7fffffffecf8) -- Size = (4) -- vaddr (0x7fffffffecf8) -- paddr (0xc5cf8) 

-- Tick (117395000) -- ISN: (82054) : S -> (0x0) at (0x6bc5a0) -- Size = (4) -- vaddr (0x6bc5a0) -- paddr (0xbc5a0) 

-- Tick (117395000) -- ISN: (82059) : L from (0x7fffffffecf8) -- of Size = (4) -- vaddr (0x7fffffffecf8) -- paddr (0xc5cf8) 

-- Tick (117395000) -- ISN: (82065) : L from (0x7fffffffecf8) -- of Size = (4) -- vaddr (0x7fffffffecf8) -- paddr (0xc5cf8) 

-- Tick (117395000) -- ISN: (82072) : L from (0x7fffffffecf8) -- of Size = (4) -- vaddr (0x7fffffffecf8) -- paddr (0xc5cf8) 

-- Tick (117396500) -- ISN: (82075) : S -> (0x5a) at (0x7fffffffecf8) -- Size = (4) -- vaddr (0x7fffffffecf8) -- paddr (0xc5cf8) 

-- Tick (117397000) -- ISN: (82071) : S -> (0x0) at (0x6bc5a4) -- Size = (4) -- vaddr (0x6bc5a4) -- paddr (0xbc5a4) 

-- Tick (117397000) -- ISN: (82076) : L from (0x7fffffffecf8) -- of Size = (4) -- vaddr (0x7fffffffecf8) -- paddr (0xc5cf8) 

-- Tick (117397000) -- ISN: (82082) : L from (0x7fffffffecf8) -- of Size = (4) -- vaddr (0x7fffffffecf8) -- paddr (0xc5cf8) 

-- Tick (117397000) -- ISN: (82089) : L from (0x7fffffffecf8) -- of Size = (4) -- vaddr (0x7fffffffecf8) -- paddr (0xc5cf8) 

-- Tick (117398500) -- ISN: (82092) : S -> (0x5b) at (0x7fffffffecf8) -- Size = (4) -- vaddr (0x7fffffffecf8) -- paddr (0xc5cf8) 

-- Tick (117399000) -- ISN: (82088) : S -> (0x0) at (0x6bc5a8) -- Size = (4) -- vaddr (0x6bc5a8) -- paddr (0xbc5a8) 

-- Tick (117399000) -- ISN: (82093) : L from (0x7fffffffecf8) -- of Size = (4) -- vaddr (0x7fffffffecf8) -- paddr (0xc5cf8) 

-- Tick (117399000) -- ISN: (82099) : L from (0x7fffffffecf8) -- of Size = (4) -- vaddr (0x7fffffffecf8) -- paddr (0xc5cf8) 

-- Tick (117399000) -- ISN: (82106) : L from (0x7fffffffecf8) -- of Size = (4) -- vaddr (0x7fffffffecf8) -- paddr (0xc5cf8) 

-- Tick (117400500) -- ISN: (82109) : S -> (0x5c) at (0x7fffffffecf8) -- Size = (4) -- vaddr (0x7fffffffecf8) -- paddr (0xc5cf8) 

-- Tick (117401000) -- ISN: (82105) : S -> (0x0) at (0x6bc5ac) -- Size = (4) -- vaddr (0x6bc5ac) -- paddr (0xbc5ac) 

-- Tick (117401000) -- ISN: (82110) : L from (0x7fffffffecf8) -- of Size = (4) -- vaddr (0x7fffffffecf8) -- paddr (0xc5cf8) 

-- Tick (117401000) -- ISN: (82116) : L from (0x7fffffffecf8) -- of Size = (4) -- vaddr (0x7fffffffecf8) -- paddr (0xc5cf8) 

-- Tick (117401000) -- ISN: (82123) : L from (0x7fffffffecf8) -- of Size = (4) -- vaddr (0x7fffffffecf8) -- paddr (0xc5cf8) 

-- Tick (117402500) -- ISN: (82126) : S -> (0x5d) at (0x7fffffffecf8) -- Size = (4) -- vaddr (0x7fffffffecf8) -- paddr (0xc5cf8) 

-- Tick (117403000) -- ISN: (82122) : S -> (0x0) at (0x6bc5b0) -- Size = (4) -- vaddr (0x6bc5b0) -- paddr (0xbc5b0) 

-- Tick (117403000) -- ISN: (82127) : L from (0x7fffffffecf8) -- of Size = (4) -- vaddr (0x7fffffffecf8) -- paddr (0xc5cf8) 

-- Tick (117403000) -- ISN: (82133) : L from (0x7fffffffecf8) -- of Size = (4) -- vaddr (0x7fffffffecf8) -- paddr (0xc5cf8) 

-- Tick (117403000) -- ISN: (82140) : L from (0x7fffffffecf8) -- of Size = (4) -- vaddr (0x7fffffffecf8) -- paddr (0xc5cf8) 

-- Tick (117404500) -- ISN: (82143) : S -> (0x5e) at (0x7fffffffecf8) -- Size = (4) -- vaddr (0x7fffffffecf8) -- paddr (0xc5cf8) 

-- Tick (117405000) -- ISN: (82139) : S -> (0x0) at (0x6bc5b4) -- Size = (4) -- vaddr (0x6bc5b4) -- paddr (0xbc5b4) 

-- Tick (117405000) -- ISN: (82144) : L from (0x7fffffffecf8) -- of Size = (4) -- vaddr (0x7fffffffecf8) -- paddr (0xc5cf8) 

-- Tick (117405000) -- ISN: (82150) : L from (0x7fffffffecf8) -- of Size = (4) -- vaddr (0x7fffffffecf8) -- paddr (0xc5cf8) 

-- Tick (117405000) -- ISN: (82157) : L from (0x7fffffffecf8) -- of Size = (4) -- vaddr (0x7fffffffecf8) -- paddr (0xc5cf8) 

-- Tick (117406500) -- ISN: (82160) : S -> (0x5f) at (0x7fffffffecf8) -- Size = (4) -- vaddr (0x7fffffffecf8) -- paddr (0xc5cf8) 

-- Tick (117407000) -- ISN: (82156) : S -> (0x0) at (0x6bc5b8) -- Size = (4) -- vaddr (0x6bc5b8) -- paddr (0xbc5b8) 

-- Tick (117407000) -- ISN: (82161) : L from (0x7fffffffecf8) -- of Size = (4) -- vaddr (0x7fffffffecf8) -- paddr (0xc5cf8) 

-- Tick (117407000) -- ISN: (82167) : L from (0x7fffffffecf8) -- of Size = (4) -- vaddr (0x7fffffffecf8) -- paddr (0xc5cf8) 

-- Tick (117407000) -- ISN: (82174) : L from (0x7fffffffecf8) -- of Size = (4) -- vaddr (0x7fffffffecf8) -- paddr (0xc5cf8) 

-- Tick (117408500) -- ISN: (82177) : S -> (0x60) at (0x7fffffffecf8) -- Size = (4) -- vaddr (0x7fffffffecf8) -- paddr (0xc5cf8) 

-- Tick (117409000) -- ISN: (82173) : S -> (0x0) at (0x6bc5bc) -- Size = (4) -- vaddr (0x6bc5bc) -- paddr (0xbc5bc) 

-- Tick (117409000) -- ISN: (82178) : L from (0x7fffffffecf8) -- of Size = (4) -- vaddr (0x7fffffffecf8) -- paddr (0xc5cf8) 

-- Tick (117409000) -- ISN: (82184) : L from (0x7fffffffecf8) -- of Size = (4) -- vaddr (0x7fffffffecf8) -- paddr (0xc5cf8) 

-- Tick (117409000) -- ISN: (82191) : L from (0x7fffffffecf8) -- of Size = (4) -- vaddr (0x7fffffffecf8) -- paddr (0xc5cf8) 

-- Tick (117411000) -- ISN: (82190) : S -> (0x0) at (0x6bc5c0) -- Size = (4) -- vaddr (0x6bc5c0) -- paddr (0xbc5c0) 

-- Tick (117459000) -- ISN: (82194) : S -> (0x61) at (0x7fffffffecf8) -- Size = (4) -- vaddr (0x7fffffffecf8) -- paddr (0xc5cf8) 

-- Tick (117459500) -- ISN: (82195) : L from (0x7fffffffecf8) -- of Size = (4) -- vaddr (0x7fffffffecf8) -- paddr (0xc5cf8) 

-- Tick (117459500) -- ISN: (82201) : L from (0x7fffffffecf8) -- of Size = (4) -- vaddr (0x7fffffffecf8) -- paddr (0xc5cf8) 

-- Tick (117460000) -- ISN: (82208) : L from (0x7fffffffecf8) -- of Size = (4) -- vaddr (0x7fffffffecf8) -- paddr (0xc5cf8) 

-- Tick (117461500) -- ISN: (82207) : S -> (0x0) at (0x6bc5c4) -- Size = (4) -- vaddr (0x6bc5c4) -- paddr (0xbc5c4) 

-- Tick (117462000) -- ISN: (82211) : S -> (0x62) at (0x7fffffffecf8) -- Size = (4) -- vaddr (0x7fffffffecf8) -- paddr (0xc5cf8) 

-- Tick (117462500) -- ISN: (82212) : L from (0x7fffffffecf8) -- of Size = (4) -- vaddr (0x7fffffffecf8) -- paddr (0xc5cf8) 

-- Tick (117462500) -- ISN: (82218) : L from (0x7fffffffecf8) -- of Size = (4) -- vaddr (0x7fffffffecf8) -- paddr (0xc5cf8) 

-- Tick (117463000) -- ISN: (82225) : L from (0x7fffffffecf8) -- of Size = (4) -- vaddr (0x7fffffffecf8) -- paddr (0xc5cf8) 

-- Tick (117464500) -- ISN: (82224) : S -> (0x0) at (0x6bc5c8) -- Size = (4) -- vaddr (0x6bc5c8) -- paddr (0xbc5c8) 

-- Tick (117464500) -- ISN: (82228) : S -> (0x63) at (0x7fffffffecf8) -- Size = (4) -- vaddr (0x7fffffffecf8) -- paddr (0xc5cf8) 

-- Tick (117465000) -- ISN: (82229) : L from (0x7fffffffecf8) -- of Size = (4) -- vaddr (0x7fffffffecf8) -- paddr (0xc5cf8) 

-- Tick (117465000) -- ISN: (82235) : L from (0x7fffffffecf8) -- of Size = (4) -- vaddr (0x7fffffffecf8) -- paddr (0xc5cf8) 

-- Tick (117465000) -- ISN: (82242) : L from (0x7fffffffecf8) -- of Size = (4) -- vaddr (0x7fffffffecf8) -- paddr (0xc5cf8) 

-- Tick (117466500) -- ISN: (82245) : S -> (0x64) at (0x7fffffffecf8) -- Size = (4) -- vaddr (0x7fffffffecf8) -- paddr (0xc5cf8) 

-- Tick (117467000) -- ISN: (82241) : S -> (0x0) at (0x6bc5cc) -- Size = (4) -- vaddr (0x6bc5cc) -- paddr (0xbc5cc) 

-- Tick (117467000) -- ISN: (82246) : L from (0x7fffffffecf8) -- of Size = (4) -- vaddr (0x7fffffffecf8) -- paddr (0xc5cf8) 

-- Tick (117467000) -- ISN: (82252) : L from (0x7fffffffecf8) -- of Size = (4) -- vaddr (0x7fffffffecf8) -- paddr (0xc5cf8) 

-- Tick (117467000) -- ISN: (82259) : L from (0x7fffffffecf8) -- of Size = (4) -- vaddr (0x7fffffffecf8) -- paddr (0xc5cf8) 

-- Tick (117468500) -- ISN: (82262) : S -> (0x65) at (0x7fffffffecf8) -- Size = (4) -- vaddr (0x7fffffffecf8) -- paddr (0xc5cf8) 

-- Tick (117469000) -- ISN: (82258) : S -> (0x0) at (0x6bc5d0) -- Size = (4) -- vaddr (0x6bc5d0) -- paddr (0xbc5d0) 

-- Tick (117469000) -- ISN: (82263) : L from (0x7fffffffecf8) -- of Size = (4) -- vaddr (0x7fffffffecf8) -- paddr (0xc5cf8) 

-- Tick (117469000) -- ISN: (82269) : L from (0x7fffffffecf8) -- of Size = (4) -- vaddr (0x7fffffffecf8) -- paddr (0xc5cf8) 

-- Tick (117469000) -- ISN: (82276) : L from (0x7fffffffecf8) -- of Size = (4) -- vaddr (0x7fffffffecf8) -- paddr (0xc5cf8) 

-- Sqsh -> ISN (82251)

-- Tick (117474000) -- ISN: (82330) : S -> (0x0) at (0x7fffffffecfc) -- Size = (4) -- vaddr (0x7fffffffecfc) -- paddr (0xc5cfc) 

-- Tick (117474500) -- ISN: (82340) : L from (0x7fffffffecfc) -- of Size = (4) -- vaddr (0x7fffffffecfc) -- paddr (0xc5cfc) 

-- Sqsh -> ISN (82333)

-- Tick (117479000) -- ISN: (82367) : L from (0x7fffffffecfc) -- of Size = (4) -- vaddr (0x7fffffffecfc) -- paddr (0xc5cfc) 

-- Tick (117480000) -- ISN: (82376) : S -> (0x6f) at (0x7fffffffece8) -- Size = (8) -- vaddr (0x7fffffffece8) -- paddr (0xc5ce8) 

-- Tick (117480000) -- ISN: (82380) : L from (0x6bc7e0) -- of Size = (4) -- vaddr (0x6bc7e0) -- paddr (0xbc7e0) 

-- Sqsh -> ISN (82378)

-- Sqsh -> ISN (82372)

-- Tick (117485500) -- ISN: (82389) : L from (0x7fffffffecfc) -- of Size = (4) -- vaddr (0x7fffffffecfc) -- paddr (0xc5cfc) 

-- Tick (117486000) -- ISN: (82386) : S -> (0x4a) at (0x7fffffffece8) -- Size = (8) -- vaddr (0x7fffffffece8) -- paddr (0xc5ce8) 

-- Tick (117486500) -- ISN: (82396) : L from (0x7fffffffecfc) -- of Size = (4) -- vaddr (0x7fffffffecfc) -- paddr (0xc5cfc) 

-- Sqsh -> ISN (82388)

-- Tick (117555500) -- ISN: (82416) : S -> (0x20) at (0x7fffffffece0) -- Size = (8) -- vaddr (0x7fffffffece0) -- paddr (0xc5ce0) 

-- Tick (117556500) -- ISN: (82420) : S -> (0x0) at (0x7fffffffecdc) -- Size = (4) -- vaddr (0x7fffffffecdc) -- paddr (0xc5cdc) 

-- Tick (117556500) -- ISN: (82424) : L from (0x7fffffffecdc) -- of Size = (4) -- vaddr (0x7fffffffecdc) -- paddr (0xc5cdc) 

-- Tick (117556500) -- ISN: (82433) : L from (0x7fffffffecdc) -- of Size = (4) -- vaddr (0x7fffffffecdc) -- paddr (0xc5cdc) 

-- Sqsh -> ISN (82423)

-- Tick (117611000) -- ISN: (82437) : L from (0x7fffffffecdc) -- of Size = (4) -- vaddr (0x7fffffffecdc) -- paddr (0xc5cdc) 

-- Tick (117611000) -- ISN: (82443) : L from (0x7fffffffece0) -- of Size = (8) -- vaddr (0x7fffffffece0) -- paddr (0xc5ce0) 

-- Tick (117612000) -- ISN: (82446) : L from (0x7fffffffece8) -- of Size = (8) -- vaddr (0x7fffffffece8) -- paddr (0xc5ce8) 

-- Tick (117613000) -- ISN: (82453) : S -> (0x54) at (0x7fffffffece8) -- Size = (8) -- vaddr (0x7fffffffece8) -- paddr (0xc5ce8) 

-- Tick (117613500) -- ISN: (82449) : L from (0x7fffffffecfc) -- of Size = (4) -- vaddr (0x7fffffffecfc) -- paddr (0xc5cfc) 

-- Tick (117613500) -- ISN: (82456) : L from (0x7fffffffecfc) -- of Size = (4) -- vaddr (0x7fffffffecfc) -- paddr (0xc5cfc) 

-- Tick (117613500) -- ISN: (82460) : L from (0x7fffffffecfc) -- of Size = (4) -- vaddr (0x7fffffffecfc) -- paddr (0xc5cfc) 

-- Sqsh -> ISN (82441)

-- Tick (117619500) -- ISN: (82500) : L from (0x7fffffffecdc) -- of Size = (4) -- vaddr (0x7fffffffecdc) -- paddr (0xc5cdc) 

-- Tick (117620500) -- ISN: (82509) : L from (0x7fffffffecdc) -- of Size = (4) -- vaddr (0x7fffffffecdc) -- paddr (0xc5cdc) 

-- Tick (117620500) -- ISN: (82513) : L from (0x7fffffffecdc) -- of Size = (4) -- vaddr (0x7fffffffecdc) -- paddr (0xc5cdc) 

-- Tick (117621000) -- ISN: (82519) : L from (0x7fffffffece0) -- of Size = (8) -- vaddr (0x7fffffffece0) -- paddr (0xc5ce0) 

-- Tick (117621500) -- ISN: (82522) : L from (0x7fffffffece8) -- of Size = (8) -- vaddr (0x7fffffffece8) -- paddr (0xc5ce8) 

-- Tick (117622000) -- ISN: (82505) : L from (0x6bc5e0) -- of Size = (4) -- vaddr (0x6bc5e0) -- paddr (0xbc5e0) 

-- Tick (117622000) -- ISN: (82529) : S -> (0x54) at (0x7fffffffece8) -- Size = (8) -- vaddr (0x7fffffffece8) -- paddr (0xc5ce8) 

-- Tick (117622500) -- ISN: (82511) : S -> (0x10) at (0x7fffffffecdc) -- Size = (4) -- vaddr (0x7fffffffecdc) -- paddr (0xc5cdc) 

-- Sqsh -> ISN (82531)

-- Tick (117623000) -- ISN: (82525) : L from (0x7fffffffecfc) -- of Size = (4) -- vaddr (0x7fffffffecfc) -- paddr (0xc5cfc) 

-- Sqsh -> ISN (82512)

-- Tick (117623500) -- ISN: (82507) : S -> (0x0) at (0x6bc424) -- Size = (4) -- vaddr (0x6bc424) -- paddr (0xbc424) 

-- Tick (117628000) -- ISN: (82584) : L from (0x7fffffffecdc) -- of Size = (4) -- vaddr (0x7fffffffecdc) -- paddr (0xc5cdc) 

-- Tick (117629000) -- ISN: (82590) : L from (0x7fffffffece0) -- of Size = (8) -- vaddr (0x7fffffffece0) -- paddr (0xc5ce0) 

-- Tick (117629500) -- ISN: (82593) : L from (0x7fffffffece8) -- of Size = (8) -- vaddr (0x7fffffffece8) -- paddr (0xc5ce8) 

-- Sqsh -> ISN (82588)

-- Tick (117634500) -- ISN: (82603) : L from (0x7fffffffecdc) -- of Size = (4) -- vaddr (0x7fffffffecdc) -- paddr (0xc5cdc) 

-- Tick (117635500) -- ISN: (82612) : L from (0x7fffffffecdc) -- of Size = (4) -- vaddr (0x7fffffffecdc) -- paddr (0xc5cdc) 

-- Tick (117636000) -- ISN: (82622) : L from (0x7fffffffece0) -- of Size = (8) -- vaddr (0x7fffffffece0) -- paddr (0xc5ce0) 

-- Tick (117636500) -- ISN: (82608) : L from (0x6bc620) -- of Size = (4) -- vaddr (0x6bc620) -- paddr (0xbc620) 

-- Tick (117637000) -- ISN: (82614) : S -> (0x20) at (0x7fffffffecdc) -- Size = (4) -- vaddr (0x7fffffffecdc) -- paddr (0xc5cdc) 

-- Tick (117637000) -- ISN: (82625) : L from (0x7fffffffece8) -- of Size = (8) -- vaddr (0x7fffffffece8) -- paddr (0xc5ce8) 

-- Tick (117637500) -- ISN: (82616) : L from (0x7fffffffecdc) -- of Size = (4) -- vaddr (0x7fffffffecdc) -- paddr (0xc5cdc) 

-- Tick (117638000) -- ISN: (82628) : L from (0x7fffffffecfc) -- of Size = (4) -- vaddr (0x7fffffffecfc) -- paddr (0xc5cfc) 

-- Tick (117638000) -- ISN: (82632) : S -> (0x54) at (0x7fffffffece8) -- Size = (8) -- vaddr (0x7fffffffece8) -- paddr (0xc5ce8) 

-- Tick (117638000) -- ISN: (82635) : L from (0x7fffffffecfc) -- of Size = (4) -- vaddr (0x7fffffffecfc) -- paddr (0xc5cfc) 

-- Tick (117638000) -- ISN: (82639) : L from (0x7fffffffecfc) -- of Size = (4) -- vaddr (0x7fffffffecfc) -- paddr (0xc5cfc) 

-- Sqsh -> ISN (82634)

-- Sqsh -> ISN (82620)

-- Tick (117645500) -- ISN: (82679) : L from (0x7fffffffecdc) -- of Size = (4) -- vaddr (0x7fffffffecdc) -- paddr (0xc5cdc) 

-- Tick (117646500) -- ISN: (82688) : L from (0x7fffffffecdc) -- of Size = (4) -- vaddr (0x7fffffffecdc) -- paddr (0xc5cdc) 

-- Tick (117647000) -- ISN: (82698) : L from (0x7fffffffece0) -- of Size = (8) -- vaddr (0x7fffffffece0) -- paddr (0xc5ce0) 

-- Tick (117647500) -- ISN: (82684) : L from (0x6bc660) -- of Size = (4) -- vaddr (0x6bc660) -- paddr (0xbc660) 

-- Tick (117647500) -- ISN: (82701) : L from (0x7fffffffece8) -- of Size = (8) -- vaddr (0x7fffffffece8) -- paddr (0xc5ce8) 

-- Tick (117648000) -- ISN: (82690) : S -> (0x30) at (0x7fffffffecdc) -- Size = (4) -- vaddr (0x7fffffffecdc) -- paddr (0xc5cdc) 

-- Tick (117648000) -- ISN: (82708) : S -> (0x54) at (0x7fffffffece8) -- Size = (8) -- vaddr (0x7fffffffece8) -- paddr (0xc5ce8) 

-- Tick (117648500) -- ISN: (82692) : L from (0x7fffffffecdc) -- of Size = (4) -- vaddr (0x7fffffffecdc) -- paddr (0xc5cdc) 

-- Sqsh -> ISN (82710)

-- Tick (117649000) -- ISN: (82704) : L from (0x7fffffffecfc) -- of Size = (4) -- vaddr (0x7fffffffecfc) -- paddr (0xc5cfc) 

-- Sqsh -> ISN (82696)

-- Tick (117656500) -- ISN: (82763) : L from (0x7fffffffecdc) -- of Size = (4) -- vaddr (0x7fffffffecdc) -- paddr (0xc5cdc) 

-- Tick (117657500) -- ISN: (82772) : L from (0x7fffffffecdc) -- of Size = (4) -- vaddr (0x7fffffffecdc) -- paddr (0xc5cdc) 

-- Tick (117658000) -- ISN: (82782) : L from (0x7fffffffece0) -- of Size = (8) -- vaddr (0x7fffffffece0) -- paddr (0xc5ce0) 

-- Tick (117658500) -- ISN: (82768) : L from (0x6bc6a0) -- of Size = (4) -- vaddr (0x6bc6a0) -- paddr (0xbc6a0) 

-- Tick (117658500) -- ISN: (82785) : L from (0x7fffffffece8) -- of Size = (8) -- vaddr (0x7fffffffece8) -- paddr (0xc5ce8) 

-- Tick (117659000) -- ISN: (82774) : S -> (0x40) at (0x7fffffffecdc) -- Size = (4) -- vaddr (0x7fffffffecdc) -- paddr (0xc5cdc) 

-- Tick (117659000) -- ISN: (82792) : S -> (0x54) at (0x7fffffffece8) -- Size = (8) -- vaddr (0x7fffffffece8) -- paddr (0xc5ce8) 

-- Tick (117659500) -- ISN: (82776) : L from (0x7fffffffecdc) -- of Size = (4) -- vaddr (0x7fffffffecdc) -- paddr (0xc5cdc) 

-- Tick (117660000) -- ISN: (82788) : L from (0x7fffffffecfc) -- of Size = (4) -- vaddr (0x7fffffffecfc) -- paddr (0xc5cfc) 

-- Sqsh -> ISN (82780)

-- Tick (117666000) -- ISN: (82795) : L from (0x7fffffffecdc) -- of Size = (4) -- vaddr (0x7fffffffecdc) -- paddr (0xc5cdc) 

-- Tick (117667000) -- ISN: (82804) : L from (0x7fffffffecdc) -- of Size = (4) -- vaddr (0x7fffffffecdc) -- paddr (0xc5cdc) 

-- Tick (117668000) -- ISN: (82800) : L from (0x6bc6e0) -- of Size = (4) -- vaddr (0x6bc6e0) -- paddr (0xbc6e0) 

-- Tick (117668500) -- ISN: (82806) : S -> (0x50) at (0x7fffffffecdc) -- Size = (4) -- vaddr (0x7fffffffecdc) -- paddr (0xc5cdc) 

-- Tick (117668500) -- ISN: (82813) : L from (0x7fffffffecdc) -- of Size = (4) -- vaddr (0x7fffffffecdc) -- paddr (0xc5cdc) 

-- Tick (117669000) -- ISN: (82808) : L from (0x7fffffffecdc) -- of Size = (4) -- vaddr (0x7fffffffecdc) -- paddr (0xc5cdc) 

-- Tick (117669000) -- ISN: (82822) : L from (0x7fffffffecdc) -- of Size = (4) -- vaddr (0x7fffffffecdc) -- paddr (0xc5cdc) 

-- Tick (117670500) -- ISN: (82818) : L from (0x6bc720) -- of Size = (4) -- vaddr (0x6bc720) -- paddr (0xbc720) 

-- Tick (117670500) -- ISN: (82824) : S -> (0x60) at (0x7fffffffecdc) -- Size = (4) -- vaddr (0x7fffffffecdc) -- paddr (0xc5cdc) 

-- Tick (117671000) -- ISN: (82826) : L from (0x7fffffffecdc) -- of Size = (4) -- vaddr (0x7fffffffecdc) -- paddr (0xc5cdc) 

-- Tick (117671000) -- ISN: (82831) : L from (0x7fffffffecdc) -- of Size = (4) -- vaddr (0x7fffffffecdc) -- paddr (0xc5cdc) 

-- Tick (117671500) -- ISN: (82840) : L from (0x7fffffffecdc) -- of Size = (4) -- vaddr (0x7fffffffecdc) -- paddr (0xc5cdc) 

-- Tick (117673000) -- ISN: (82836) : L from (0x6bc760) -- of Size = (4) -- vaddr (0x6bc760) -- paddr (0xbc760) 

-- Tick (117673000) -- ISN: (82842) : S -> (0x70) at (0x7fffffffecdc) -- Size = (4) -- vaddr (0x7fffffffecdc) -- paddr (0xc5cdc) 

-- Tick (117673500) -- ISN: (82844) : L from (0x7fffffffecdc) -- of Size = (4) -- vaddr (0x7fffffffecdc) -- paddr (0xc5cdc) 

-- Tick (117673500) -- ISN: (82849) : L from (0x7fffffffecdc) -- of Size = (4) -- vaddr (0x7fffffffecdc) -- paddr (0xc5cdc) 

-- Tick (117675500) -- ISN: (82854) : L from (0x6bc7a0) -- of Size = (4) -- vaddr (0x6bc7a0) -- paddr (0xbc7a0) 

-- Tick (117682000) -- ISN: (82800) : L from (0x6bc6e0) -- of Size = (4) -- vaddr (0x6bc6e0) -- paddr (0xbc6e0) 

-- Tick (117682000) -- ISN: (82818) : L from (0x6bc720) -- of Size = (4) -- vaddr (0x6bc720) -- paddr (0xbc720) 

-- Tick (117682000) -- ISN: (82836) : L from (0x6bc760) -- of Size = (4) -- vaddr (0x6bc760) -- paddr (0xbc760) 

-- Tick (117682000) -- ISN: (82854) : L from (0x6bc7a0) -- of Size = (4) -- vaddr (0x6bc7a0) -- paddr (0xbc7a0) 

-- Tick (117697000) -- ISN: (82818) : L from (0x6bc720) -- of Size = (4) -- vaddr (0x6bc720) -- paddr (0xbc720) 

-- Tick (117697000) -- ISN: (82836) : L from (0x6bc760) -- of Size = (4) -- vaddr (0x6bc760) -- paddr (0xbc760) 

-- Tick (117697000) -- ISN: (82854) : L from (0x6bc7a0) -- of Size = (4) -- vaddr (0x6bc7a0) -- paddr (0xbc7a0) 

-- Tick (117697500) -- ISN: (82610) : S -> (0x0) at (0x6bc424) -- Size = (4) -- vaddr (0x6bc424) -- paddr (0xbc424) 

-- Tick (117700500) -- ISN: (82858) : L from (0x7fffffffecdc) -- of Size = (4) -- vaddr (0x7fffffffecdc) -- paddr (0xc5cdc) 

-- Tick (117702000) -- ISN: (82836) : L from (0x6bc760) -- of Size = (4) -- vaddr (0x6bc760) -- paddr (0xbc760) 

-- Tick (117702000) -- ISN: (82854) : L from (0x6bc7a0) -- of Size = (4) -- vaddr (0x6bc7a0) -- paddr (0xbc7a0) 

-- Tick (117702000) -- ISN: (82860) : S -> (0x80) at (0x7fffffffecdc) -- Size = (4) -- vaddr (0x7fffffffecdc) -- paddr (0xc5cdc) 

-- Tick (117702500) -- ISN: (82686) : S -> (0x0) at (0x6bc424) -- Size = (4) -- vaddr (0x6bc424) -- paddr (0xbc424) 

-- Tick (117702500) -- ISN: (82862) : L from (0x7fffffffecdc) -- of Size = (4) -- vaddr (0x7fffffffecdc) -- paddr (0xc5cdc) 

-- Tick (117702500) -- ISN: (82867) : L from (0x7fffffffecdc) -- of Size = (4) -- vaddr (0x7fffffffecdc) -- paddr (0xc5cdc) 

-- Tick (117703000) -- ISN: (82876) : L from (0x7fffffffecdc) -- of Size = (4) -- vaddr (0x7fffffffecdc) -- paddr (0xc5cdc) 

-- Tick (117703500) -- ISN: (82885) : L from (0x7fffffffecdc) -- of Size = (4) -- vaddr (0x7fffffffecdc) -- paddr (0xc5cdc) 

-- Tick (117704500) -- ISN: (82872) : L from (0x6bc7e0) -- of Size = (4) -- vaddr (0x6bc7e0) -- paddr (0xbc7e0) 

-- Tick (117704500) -- ISN: (82878) : S -> (0x90) at (0x7fffffffecdc) -- Size = (4) -- vaddr (0x7fffffffecdc) -- paddr (0xc5cdc) 

-- Tick (117705000) -- ISN: (82880) : L from (0x7fffffffecdc) -- of Size = (4) -- vaddr (0x7fffffffecdc) -- paddr (0xc5cdc) 

-- Tick (117705000) -- ISN: (82894) : L from (0x7fffffffecdc) -- of Size = (4) -- vaddr (0x7fffffffecdc) -- paddr (0xc5cdc) 

-- Sqsh -> ISN (82884)

-- Tick (117710000) -- ISN: (82854) : L from (0x6bc7a0) -- of Size = (4) -- vaddr (0x6bc7a0) -- paddr (0xbc7a0) 

-- Tick (117710000) -- ISN: (82872) : L from (0x6bc7e0) -- of Size = (4) -- vaddr (0x6bc7e0) -- paddr (0xbc7e0) 

-- Tick (117710500) -- ISN: (82770) : S -> (0x0) at (0x6bc424) -- Size = (4) -- vaddr (0x6bc424) -- paddr (0xbc424) 

-- Tick (117710500) -- ISN: (82933) : L from (0x7fffffffecdc) -- of Size = (4) -- vaddr (0x7fffffffecdc) -- paddr (0xc5cdc) 

-- Tick (117711500) -- ISN: (82942) : L from (0x7fffffffecdc) -- of Size = (4) -- vaddr (0x7fffffffecdc) -- paddr (0xc5cdc) 

[...]

-- Tick (171284000) -- ISN: (155816) : S -> (0x50) at (0x7fffffffecdc) -- Size = (4) -- vaddr (0x7fffffffecdc) -- paddr (0xc5cdc) 

-- Tick (171284500) -- ISN: (155818) : L from (0x7fffffffecdc) -- of Size = (4) -- vaddr (0x7fffffffecdc) -- paddr (0xc5cdc) 

-- Tick (171284500) -- ISN: (155823) : L from (0x7fffffffecdc) -- of Size = (4) -- vaddr (0x7fffffffecdc) -- paddr (0xc5cdc) 

-- Tick (171286500) -- ISN: (155828) : L from (0x6bcb20) -- of Size = (4) -- vaddr (0x6bcb20) -- paddr (0xbcb20) 

-- Tick (171288000) -- ISN: (155774) : L from (0x6bca60) -- of Size = (4) -- vaddr (0x6bca60) -- paddr (0xbca60) 

-- Tick (171288000) -- ISN: (155810) : L from (0x6bcae0) -- of Size = (4) -- vaddr (0x6bcae0) -- paddr (0xbcae0) 

-- Tick (171288000) -- ISN: (155828) : L from (0x6bcb20) -- of Size = (4) -- vaddr (0x6bcb20) -- paddr (0xbcb20) 

-- Tick (171288500) -- ISN: (155794) : S -> (0x0) at (0x6bc424) -- Size = (4) -- vaddr (0x6bc424) -- paddr (0xbc424) 

-- Tick (171291500) -- ISN: (155832) : L from (0x7fffffffecdc) -- of Size = (4) -- vaddr (0x7fffffffecdc) -- paddr (0xc5cdc) 

-- Tick (171293000) -- ISN: (155810) : L from (0x6bcae0) -- of Size = (4) -- vaddr (0x6bcae0) -- paddr (0xbcae0) 

-- Tick (171293000) -- ISN: (155828) : L from (0x6bcb20) -- of Size = (4) -- vaddr (0x6bcb20) -- paddr (0xbcb20) 

-- Tick (171293500) -- ISN: (155722) : S -> (0x0) at (0x6bc424) -- Size = (4) -- vaddr (0x6bc424) -- paddr (0xbc424) 

-- Tick (171294000) -- ISN: (155834) : S -> (0x60) at (0x7fffffffecdc) -- Size = (4) -- vaddr (0x7fffffffecdc) -- paddr (0xc5cdc) 

-- Tick (171294500) -- ISN: (155836) : L from (0x7fffffffecdc) -- of Size = (4) -- vaddr (0x7fffffffecdc) -- paddr (0xc5cdc) 

-- Tick (171294500) -- ISN: (155841) : L from (0x7fffffffecdc) -- of Size = (4) -- vaddr (0x7fffffffecdc) -- paddr (0xc5cdc) 

-- Tick (171296500) -- ISN: (155846) : L from (0x6bcb60) -- of Size = (4) -- vaddr (0x6bcb60) -- paddr (0xbcb60) 

-- Tick (171321000) -- ISN: (155828) : L from (0x6bcb20) -- of Size = (4) -- vaddr (0x6bcb20) -- paddr (0xbcb20) 

-- Tick (171321000) -- ISN: (155846) : L from (0x6bcb60) -- of Size = (4) -- vaddr (0x6bcb60) -- paddr (0xbcb60) 

-- Tick (171321500) -- ISN: (155740) : S -> (0x0) at (0x6bc424) -- Size = (4) -- vaddr (0x6bc424) -- paddr (0xbc424) 

-- Tick (171323500) -- ISN: (155850) : L from (0x7fffffffecdc) -- of Size = (4) -- vaddr (0x7fffffffecdc) -- paddr (0xc5cdc) 

-- Tick (171334000) -- ISN: (155846) : L from (0x6bcb60) -- of Size = (4) -- vaddr (0x6bcb60) -- paddr (0xbcb60) 

-- Tick (171334500) -- ISN: (155758) : S -> (0x0) at (0x6bc424) -- Size = (4) -- vaddr (0x6bc424) -- paddr (0xbc424) 

-- Tick (171336500) -- ISN: (155852) : S -> (0x70) at (0x7fffffffecdc) -- Size = (4) -- vaddr (0x7fffffffecdc) -- paddr (0xc5cdc) 

-- Tick (171337000) -- ISN: (155854) : L from (0x7fffffffecdc) -- of Size = (4) -- vaddr (0x7fffffffecdc) -- paddr (0xc5cdc) 

-- Tick (171337500) -- ISN: (155859) : L from (0x7fffffffecdc) -- of Size = (4) -- vaddr (0x7fffffffecdc) -- paddr (0xc5cdc) 

-- Tick (171339500) -- ISN: (155776) : S -> (0x0) at (0x6bc424) -- Size = (4) -- vaddr (0x6bc424) -- paddr (0xbc424) 

-- Tick (171339500) -- ISN: (155864) : L from (0x6bcba0) -- of Size = (4) -- vaddr (0x6bcba0) -- paddr (0xbcba0) 

-- Tick (171341500) -- ISN: (155868) : L from (0x7fffffffecdc) -- of Size = (4) -- vaddr (0x7fffffffecdc) -- paddr (0xc5cdc) 

-- Tick (171344500) -- ISN: (155812) : S -> (0x0) at (0x6bc424) -- Size = (4) -- vaddr (0x6bc424) -- paddr (0xbc424) 

-- Tick (171346500) -- ISN: (155870) : S -> (0x80) at (0x7fffffffecdc) -- Size = (4) -- vaddr (0x7fffffffecdc) -- paddr (0xc5cdc) 

-- Tick (171347500) -- ISN: (155872) : L from (0x7fffffffecdc) -- of Size = (4) -- vaddr (0x7fffffffecdc) -- paddr (0xc5cdc) 

-- Tick (171347500) -- ISN: (155877) : L from (0x7fffffffecdc) -- of Size = (4) -- vaddr (0x7fffffffecdc) -- paddr (0xc5cdc) 

-- Tick (171348000) -- ISN: (155886) : L from (0x7fffffffecdc) -- of Size = (4) -- vaddr (0x7fffffffecdc) -- paddr (0xc5cdc) 

-- Tick (171349500) -- ISN: (155882) : L from (0x6bcbe0) -- of Size = (4) -- vaddr (0x6bcbe0) -- paddr (0xbcbe0) 

-- Tick (171349500) -- ISN: (155888) : S -> (0x90) at (0x7fffffffecdc) -- Size = (4) -- vaddr (0x7fffffffecdc) -- paddr (0xc5cdc) 

-- Tick (171350000) -- ISN: (155890) : L from (0x7fffffffecdc) -- of Size = (4) -- vaddr (0x7fffffffecdc) -- paddr (0xc5cdc) 

-- Tick (171350000) -- ISN: (155895) : L from (0x7fffffffecdc) -- of Size = (4) -- vaddr (0x7fffffffecdc) -- paddr (0xc5cdc) 

-- Tick (171350000) -- ISN: (155904) : L from (0x7fffffffecdc) -- of Size = (4) -- vaddr (0x7fffffffecdc) -- paddr (0xc5cdc) 

-- Tick (171351500) -- ISN: (155906) : S -> (0xa0) at (0x7fffffffecdc) -- Size = (4) -- vaddr (0x7fffffffecdc) -- paddr (0xc5cdc) 

-- Tick (171352000) -- ISN: (155900) : L from (0x6bcc20) -- of Size = (4) -- vaddr (0x6bcc20) -- paddr (0xbcc20) 

-- Tick (171352000) -- ISN: (155908) : L from (0x7fffffffecdc) -- of Size = (4) -- vaddr (0x7fffffffecdc) -- paddr (0xc5cdc) 

-- Tick (171352000) -- ISN: (155913) : L from (0x7fffffffecdc) -- of Size = (4) -- vaddr (0x7fffffffecdc) -- paddr (0xc5cdc) 

-- Tick (171352000) -- ISN: (155922) : L from (0x7fffffffecdc) -- of Size = (4) -- vaddr (0x7fffffffecdc) -- paddr (0xc5cdc) 

-- Tick (171354000) -- ISN: (155918) : L from (0x6bcc60) -- of Size = (4) -- vaddr (0x6bcc60) -- paddr (0xbcc60) 

-- Tick (171639000) -- ISN: (155900) : L from (0x6bcc20) -- of Size = (4) -- vaddr (0x6bcc20) -- paddr (0xbcc20) 

-- Tick (171639000) -- ISN: (155918) : L from (0x6bcc60) -- of Size = (4) -- vaddr (0x6bcc60) -- paddr (0xbcc60) 

-- Tick (171639500) -- ISN: (155830) : S -> (0x0) at (0x6bc424) -- Size = (4) -- vaddr (0x6bc424) -- paddr (0xbc424) 

-- Tick (171641500) -- ISN: (155924) : S -> (0xb0) at (0x7fffffffecdc) -- Size = (4) -- vaddr (0x7fffffffecdc) -- paddr (0xc5cdc) 

-- Tick (171642000) -- ISN: (155926) : L from (0x7fffffffecdc) -- of Size = (4) -- vaddr (0x7fffffffecdc) -- paddr (0xc5cdc) 

-- Tick (171642000) -- ISN: (155931) : L from (0x7fffffffecdc) -- of Size = (4) -- vaddr (0x7fffffffecdc) -- paddr (0xc5cdc) 

-- Tick (171644000) -- ISN: (155918) : L from (0x6bcc60) -- of Size = (4) -- vaddr (0x6bcc60) -- paddr (0xbcc60) 

-- Tick (171644000) -- ISN: (155936) : L from (0x6bcca0) -- of Size = (4) -- vaddr (0x6bcca0) -- paddr (0xbcca0) 

-- Tick (171644500) -- ISN: (155848) : S -> (0x0) at (0x6bc424) -- Size = (4) -- vaddr (0x6bc424) -- paddr (0xbc424) 

-- Tick (171646500) -- ISN: (155940) : L from (0x7fffffffecdc) -- of Size = (4) -- vaddr (0x7fffffffecdc) -- paddr (0xc5cdc) 

-- Tick (171650000) -- ISN: (155936) : L from (0x6bcca0) -- of Size = (4) -- vaddr (0x6bcca0) -- paddr (0xbcca0) 

-- Tick (171650500) -- ISN: (155866) : S -> (0x0) at (0x6bc424) -- Size = (4) -- vaddr (0x6bc424) -- paddr (0xbc424) 

-- Tick (171652500) -- ISN: (155942) : S -> (0xc0) at (0x7fffffffecdc) -- Size = (4) -- vaddr (0x7fffffffecdc) -- paddr (0xc5cdc) 

-- Tick (171653500) -- ISN: (155944) : L from (0x7fffffffecdc) -- of Size = (4) -- vaddr (0x7fffffffecdc) -- paddr (0xc5cdc) 

-- Tick (171653500) -- ISN: (155949) : L from (0x7fffffffecdc) -- of Size = (4) -- vaddr (0x7fffffffecdc) -- paddr (0xc5cdc) 

-- Tick (171655500) -- ISN: (155884) : S -> (0x0) at (0x6bc424) -- Size = (4) -- vaddr (0x6bc424) -- paddr (0xbc424) 

-- Tick (171655500) -- ISN: (155954) : L from (0x6bcce0) -- of Size = (4) -- vaddr (0x6bcce0) -- paddr (0xbcce0) 

-- Tick (171657500) -- ISN: (155958) : L from (0x7fffffffecdc) -- of Size = (4) -- vaddr (0x7fffffffecdc) -- paddr (0xc5cdc) 

-- Tick (171690500) -- ISN: (155902) : S -> (0x0) at (0x6bc424) -- Size = (4) -- vaddr (0x6bc424) -- paddr (0xbc424) 

-- Tick (171695500) -- ISN: (155920) : S -> (0x0) at (0x6bc424) -- Size = (4) -- vaddr (0x6bc424) -- paddr (0xbc424) 

-- Tick (171701500) -- ISN: (155938) : S -> (0x0) at (0x6bc424) -- Size = (4) -- vaddr (0x6bc424) -- paddr (0xbc424) 

-- Tick (171707500) -- ISN: (155956) : S -> (0x0) at (0x6bc424) -- Size = (4) -- vaddr (0x6bc424) -- paddr (0xbc424) 

-- Tick (171718000) -- ISN: (155960) : S -> (0xd0) at (0x7fffffffecdc) -- Size = (4) -- vaddr (0x7fffffffecdc) -- paddr (0xc5cdc) 

-- Tick (171718500) -- ISN: (155962) : L from (0x7fffffffecdc) -- of Size = (4) -- vaddr (0x7fffffffecdc) -- paddr (0xc5cdc) 

-- Tick (171718500) -- ISN: (155967) : L from (0x7fffffffecdc) -- of Size = (4) -- vaddr (0x7fffffffecdc) -- paddr (0xc5cdc) 

-- Tick (171720500) -- ISN: (155972) : L from (0x6bcd20) -- of Size = (4) -- vaddr (0x6bcd20) -- paddr (0xbcd20) 

-- Tick (171738500) -- ISN: (155976) : L from (0x7fffffffecdc) -- of Size = (4) -- vaddr (0x7fffffffecdc) -- paddr (0xc5cdc) 

-- Tick (171741000) -- ISN: (155978) : S -> (0xe0) at (0x7fffffffecdc) -- Size = (4) -- vaddr (0x7fffffffecdc) -- paddr (0xc5cdc) 

-- Tick (171741500) -- ISN: (155980) : L from (0x7fffffffecdc) -- of Size = (4) -- vaddr (0x7fffffffecdc) -- paddr (0xc5cdc) 

-- Tick (171742000) -- ISN: (155985) : L from (0x7fffffffecdc) -- of Size = (4) -- vaddr (0x7fffffffecdc) -- paddr (0xc5cdc) 

-- Tick (171742500) -- ISN: (155994) : L from (0x7fffffffecdc) -- of Size = (4) -- vaddr (0x7fffffffecdc) -- paddr (0xc5cdc) 

-- Tick (171744000) -- ISN: (155990) : L from (0x6bcd60) -- of Size = (4) -- vaddr (0x6bcd60) -- paddr (0xbcd60) 

-- Tick (171744000) -- ISN: (155996) : S -> (0xf0) at (0x7fffffffecdc) -- Size = (4) -- vaddr (0x7fffffffecdc) -- paddr (0xc5cdc) 

-- Tick (171744500) -- ISN: (155998) : L from (0x7fffffffecdc) -- of Size = (4) -- vaddr (0x7fffffffecdc) -- paddr (0xc5cdc) 

-- Tick (171744500) -- ISN: (156003) : L from (0x7fffffffecdc) -- of Size = (4) -- vaddr (0x7fffffffecdc) -- paddr (0xc5cdc) 

-- Tick (171744500) -- ISN: (156012) : L from (0x7fffffffecdc) -- of Size = (4) -- vaddr (0x7fffffffecdc) -- paddr (0xc5cdc) 

-- Tick (171746000) -- ISN: (156014) : S -> (0x0) at (0x7fffffffecdc) -- Size = (4) -- vaddr (0x7fffffffecdc) -- paddr (0xc5cdc) 

-- Tick (171746500) -- ISN: (156008) : L from (0x6bcda0) -- of Size = (4) -- vaddr (0x6bcda0) -- paddr (0xbcda0) 

-- Tick (171746500) -- ISN: (156016) : L from (0x7fffffffecdc) -- of Size = (4) -- vaddr (0x7fffffffecdc) -- paddr (0xc5cdc) 

-- Tick (171746500) -- ISN: (156021) : L from (0x7fffffffecdc) -- of Size = (4) -- vaddr (0x7fffffffecdc) -- paddr (0xc5cdc) 

-- Tick (171746500) -- ISN: (156030) : L from (0x7fffffffecdc) -- of Size = (4) -- vaddr (0x7fffffffecdc) -- paddr (0xc5cdc) 

-- Tick (171748000) -- ISN: (156032) : S -> (0x10) at (0x7fffffffecdc) -- Size = (4) -- vaddr (0x7fffffffecdc) -- paddr (0xc5cdc) 

-- Tick (171748500) -- ISN: (156026) : L from (0x6bcde0) -- of Size = (4) -- vaddr (0x6bcde0) -- paddr (0xbcde0) 

-- Tick (171748500) -- ISN: (156034) : L from (0x7fffffffecdc) -- of Size = (4) -- vaddr (0x7fffffffecdc) -- paddr (0xc5cdc) 

-- Tick (171748500) -- ISN: (156039) : L from (0x7fffffffecdc) -- of Size = (4) -- vaddr (0x7fffffffecdc) -- paddr (0xc5cdc) 

-- Tick (171748500) -- ISN: (156048) : L from (0x7fffffffecdc) -- of Size = (4) -- vaddr (0x7fffffffecdc) -- paddr (0xc5cdc) 

-- Sqsh -> ISN (156020)

-- Tick (171754500) -- ISN: (156084) : L from (0x7fffffffece0) -- of Size = (8) -- vaddr (0x7fffffffece0) -- paddr (0xc5ce0) 

-- Tick (171755000) -- ISN: (156087) : L from (0x7fffffffece8) -- of Size = (8) -- vaddr (0x7fffffffece8) -- paddr (0xc5ce8) 

-- Tick (171756000) -- ISN: (156091) : L from (0x6bc7e0) -- of Size = (4) -- vaddr (0x6bc7e0) -- paddr (0xbc7e0) 

-- Tick (171756000) -- ISN: (156095) : L from (0x6bc820) -- of Size = (4) -- vaddr (0x6bc820) -- paddr (0xbc820) 

-- Tick (171756500) -- ISN: (156101) : S -> (0x91) at (0x7fffffffece8) -- Size = (8) -- vaddr (0x7fffffffece8) -- paddr (0xc5ce8) 

-- Tick (171757000) -- ISN: (156107) : S -> (0x9b) at (0x7fffffffece0) -- Size = (8) -- vaddr (0x7fffffffece0) -- paddr (0xc5ce0) 

-- Tick (171757000) -- ISN: (156113) : S -> (0xa5) at (0x7fffffffecd8) -- Size = (8) -- vaddr (0x7fffffffecd8) -- paddr (0xc5cd8) 

-- Sqsh -> ISN (156103)

-- Tick (171762000) -- ISN: (156157) : L from (0x6b90f0) -- of Size = (4) -- vaddr (0x6b90f0) -- paddr (0xb90f0) 

-- Tick (171772000) -- ISN: (156084) : L from (0x7fffffffece0) -- of Size = (8) -- vaddr (0x7fffffffece0) -- paddr (0xc5ce0) 

-- Tick (171772000) -- ISN: (156087) : L from (0x7fffffffece8) -- of Size = (8) -- vaddr (0x7fffffffece8) -- paddr (0xc5ce8) 

-- Tick (171772000) -- ISN: (156091) : L from (0x6bc7e0) -- of Size = (4) -- vaddr (0x6bc7e0) -- paddr (0xbc7e0) 

-- Tick (171772000) -- ISN: (156095) : L from (0x6bc820) -- of Size = (4) -- vaddr (0x6bc820) -- paddr (0xbc820) 

-- Tick (171772500) -- ISN: (155974) : S -> (0x0) at (0x6bc424) -- Size = (4) -- vaddr (0x6bc424) -- paddr (0xbc424) 

-- Tick (171772500) -- ISN: (156157) : L from (0x6b90f0) -- of Size = (4) -- vaddr (0x6b90f0) -- paddr (0xb90f0) 

-- Tick (171774000) -- ISN: (156152) : S -> (0x20) at (0x7fffffffece0) -- Size = (8) -- vaddr (0x7fffffffece0) -- paddr (0xc5ce0) 

-- Tick (171774500) -- ISN: (156155) : S -> (0x69) at (0x7fffffffecdc) -- Size = (4) -- vaddr (0x7fffffffecdc) -- paddr (0xc5cdc) 

-- Tick (171774500) -- ISN: (156179) : L from (0x7fffffffece0) -- of Size = (8) -- vaddr (0x7fffffffece0) -- paddr (0xc5ce0) 

-- Tick (171774500) -- ISN: (156182) : L from (0x7fffffffece8) -- of Size = (8) -- vaddr (0x7fffffffece8) -- paddr (0xc5ce8) 

-- Tick (171774500) -- ISN: (156188) : S -> (0x9b) at (0x7fffffffece8) -- Size = (8) -- vaddr (0x7fffffffece8) -- paddr (0xc5ce8) 

-- Tick (171775000) -- ISN: (156158) : L from (0x7fffffffecdc) -- of Size = (4) -- vaddr (0x7fffffffecdc) -- paddr (0xc5cdc) 

-- Tick (171775000) -- ISN: (156163) : L from (0x7fffffffecdc) -- of Size = (4) -- vaddr (0x7fffffffecdc) -- paddr (0xc5cdc) 

-- Sqsh -> ISN (156190)

-- Tick (171777000) -- ISN: (156168) : L from (0x6bc5e4) -- of Size = (4) -- vaddr (0x6bc5e4) -- paddr (0xbc5e4) 

-- Tick (171795000) -- ISN: (156095) : L from (0x6bc820) -- of Size = (4) -- vaddr (0x6bc820) -- paddr (0xbc820) 

-- Tick (171795000) -- ISN: (156157) : L from (0x6b90f0) -- of Size = (4) -- vaddr (0x6b90f0) -- paddr (0xb90f0) 

-- Tick (171795000) -- ISN: (156168) : L from (0x6bc5e4) -- of Size = (4) -- vaddr (0x6bc5e4) -- paddr (0xbc5e4) 

-- Tick (171795500) -- ISN: (155992) : S -> (0x0) at (0x6bc424) -- Size = (4) -- vaddr (0x6bc424) -- paddr (0xbc424) 

-- Tick (171797500) -- ISN: (156239) : S -> (0x20) at (0x7fffffffece0) -- Size = (8) -- vaddr (0x7fffffffece0) -- paddr (0xc5ce0) 

-- Tick (171801000) -- ISN: (156157) : L from (0x6b90f0) -- of Size = (4) -- vaddr (0x6b90f0) -- paddr (0xb90f0) 

-- Tick (171801000) -- ISN: (156168) : L from (0x6bc5e4) -- of Size = (4) -- vaddr (0x6bc5e4) -- paddr (0xbc5e4) 

-- Tick (171801500) -- ISN: (156010) : S -> (0x0) at (0x6bc424) -- Size = (4) -- vaddr (0x6bc424) -- paddr (0xbc424) 

-- Tick (171803500) -- ISN: (156243) : S -> (0x0) at (0x7fffffffecdc) -- Size = (4) -- vaddr (0x7fffffffecdc) -- paddr (0xc5cdc) 

-- Tick (171806000) -- ISN: (156168) : L from (0x6bc5e4) -- of Size = (4) -- vaddr (0x6bc5e4) -- paddr (0xbc5e4) 

-- Tick (171808500) -- ISN: (156245) : S -> (0x1) at (0x7fffffffecdc) -- Size = (4) -- vaddr (0x7fffffffecdc) -- paddr (0xc5cdc) 

-- Tick (171823500) -- ISN: (156093) : S -> (0x0) at (0x6bc424) -- Size = (4) -- vaddr (0x6bc424) -- paddr (0xbc424) 

-- Tick (171824000) -- ISN: (156247) : S -> (0x2) at (0x7fffffffecdc) -- Size = (4) -- vaddr (0x7fffffffecdc) -- paddr (0xc5cdc) 

-- Tick (171826500) -- ISN: (156249) : S -> (0x3) at (0x7fffffffecdc) -- Size = (4) -- vaddr (0x7fffffffecdc) -- paddr (0xc5cdc) 

-- Tick (171827500) -- ISN: (156251) : S -> (0x4) at (0x7fffffffecdc) -- Size = (4) -- vaddr (0x7fffffffecdc) -- paddr (0xc5cdc) 

-- Tick (171828000) -- ISN: (156253) : S -> (0x5) at (0x7fffffffecdc) -- Size = (4) -- vaddr (0x7fffffffecdc) -- paddr (0xc5cdc) 

-- Tick (171829000) -- ISN: (156172) : L from (0x6bc3c1) -- of Size = (1) -- vaddr (0x6bc3c1) -- paddr (0xbc3c1) 

-- Tick (171829000) -- ISN: (156255) : S -> (0x6) at (0x7fffffffecdc) -- Size = (4) -- vaddr (0x7fffffffecdc) -- paddr (0xc5cdc) 

-- Tick (171845500) -- ISN: (156263) : L from (0x7fffffffece0) -- of Size = (8) -- vaddr (0x7fffffffece0) -- paddr (0xc5ce0) 

-- Tick (171846000) -- ISN: (156257) : S -> (0x7) at (0x7fffffffecdc) -- Size = (4) -- vaddr (0x7fffffffecdc) -- paddr (0xc5cdc) 

-- Tick (171846000) -- ISN: (156259) : S -> (0x8) at (0x7fffffffecdc) -- Size = (4) -- vaddr (0x7fffffffecdc) -- paddr (0xc5cdc) 

-- Tick (171846000) -- ISN: (156261) : S -> (0x9) at (0x7fffffffecdc) -- Size = (4) -- vaddr (0x7fffffffecdc) -- paddr (0xc5cdc) 

-- Tick (171846500) -- ISN: (156266) : L from (0x7fffffffece8) -- of Size = (8) -- vaddr (0x7fffffffece8) -- paddr (0xc5ce8) 

-- Tick (171847500) -- ISN: (156272) : S -> (0xa5) at (0x7fffffffece8) -- Size = (8) -- vaddr (0x7fffffffece8) -- paddr (0xc5ce8) 

-- Sqsh -> ISN (156274)

-- Tick (171850500) -- ISN: (156097) : S -> (0x0) at (0x6bc424) -- Size = (4) -- vaddr (0x6bc424) -- paddr (0xbc424) 

-- Tick (171852500) -- ISN: (156312) : L from (0x7fffffffece8) -- of Size = (8) -- vaddr (0x7fffffffece8) -- paddr (0xc5ce8) 

-- Sqsh -> ISN (156162)

-- Tick (171875500) -- ISN: (156366) : L from (0x7fffffffece0) -- of Size = (8) -- vaddr (0x7fffffffece0) -- paddr (0xc5ce0) 

-- Tick (171876000) -- ISN: (156369) : L from (0x7fffffffece8) -- of Size = (8) -- vaddr (0x7fffffffece8) -- paddr (0xc5ce8) 

-- Tick (171877000) -- ISN: (156375) : S -> (0x9b) at (0x7fffffffece8) -- Size = (8) -- vaddr (0x7fffffffece8) -- paddr (0xc5ce8) 

-- Tick (171877
Initial tick : 343835
Tick after a3[128] : 362268
Tick after a3[144] : 376720
Time Taken = 14452

500) -- ISN: (156381) : S -> (0xa5) at (0x7fffffffece0) -- Size = (8) -- vaddr (0x7fffffffece0) -- paddr (0xc5ce0) 

-- Sqsh -> ISN (156377)

-- Tick (171882000) -- ISN: (156444) : S -> (0x20) at (0x7fffffffece0) -- Size = (8) -- vaddr (0x7fffffffece0) -- paddr (0xc5ce0) 

-- Tick (171883000) -- ISN: (156448) : S -> (0x0) at (0x7fffffffecdc) -- Size = (4) -- vaddr (0x7fffffffecdc) -- paddr (0xc5cdc) 

-- Tick (171883000) -- ISN: (156450) : S -> (0x1) at (0x7fffffffecdc) -- Size = (4) -- vaddr (0x7fffffffecdc) -- paddr (0xc5cdc) 

-- Tick (171883000) -- ISN: (156452) : S -> (0x2) at (0x7fffffffecdc) -- Size = (4) -- vaddr (0x7fffffffecdc) -- paddr (0xc5cdc) 

-- Tick (171883000) -- ISN: (156454) : S -> (0x3) at (0x7fffffffecdc) -- Size = (4) -- vaddr (0x7fffffffecdc) -- paddr (0xc5cdc) 

-- Tick (171883500) -- ISN: (156456) : S -> (0x4) at (0x7fffffffecdc) -- Size = (4) -- vaddr (0x7fffffffecdc) -- paddr (0xc5cdc) 

-- Tick (171883500) -- ISN: (156458) : S -> (0x5) at (0x7fffffffecdc) -- Size = (4) -- vaddr (0x7fffffffecdc) -- paddr (0xc5cdc) 

-- Tick (171883500) -- ISN: (156460) : S -> (0x6) at (0x7fffffffecdc) -- Size = (4) -- vaddr (0x7fffffffecdc) -- paddr (0xc5cdc) 

-- Tick (171884000) -- ISN: (156468) : L from (0x7fffffffece0) -- of Size = (8) -- vaddr (0x7fffffffece0) -- paddr (0xc5ce0) 

-- Tick (171884500) -- ISN: (156462) : S -> (0x7) at (0x7fffffffecdc) -- Size = (4) -- vaddr (0x7fffffffecdc) -- paddr (0xc5cdc) 

-- Tick (171884500) -- ISN: (156464) : S -> (0x8) at (0x7fffffffecdc) -- Size = (4) -- vaddr (0x7fffffffecdc) -- paddr (0xc5cdc) 

-- Tick (171884500) -- ISN: (156466) : S -> (0x9) at (0x7fffffffecdc) -- Size = (4) -- vaddr (0x7fffffffecdc) -- paddr (0xc5cdc) 

-- Tick (171885000) -- ISN: (156471) : L from (0x7fffffffece8) -- of Size = (8) -- vaddr (0x7fffffffece8) -- paddr (0xc5ce8) 

-- Tick (171886000) -- ISN: (156477) : S -> (0xa5) at (0x7fffffffece8) -- Size = (8) -- vaddr (0x7fffffffece8) -- paddr (0xc5ce8) 

-- Sqsh -> ISN (156479)

-- Tick (171891000) -- ISN: (156517) : L from (0x7fffffffece8) -- of Size = (8) -- vaddr (0x7fffffffece8) -- paddr (0xc5ce8) 

HERE 2 : enable_memreq_tracing = 0
Exiting @ tick 206315000 because exiting with last active thread context
