gem5 Simulator System.  http://gem5.org
gem5 is copyrighted software; use the --copyright option for details.

gem5 compiled Apr  1 2020 15:50:10
gem5 started Apr  3 2020 17:42:35
gem5 executing on tarund-desk, pid 16718
command line: build/X86/gem5.opt configs/example/se.py --cmd=./tests/my_progs/spectre_test_3_clean --cpu-type=DerivO3CPU --caches --mem-size=4GB --l1d_size=32kB --l1i_size=1kB --l1d_assoc=1 --l1i_assoc=1 --cacheline_size=64 --l2cache --l2_size=32kB --l2_assoc=2

Global frequency set at 1000000000000 ticks per second
**** REAL SIMULATION ****

Address of a1_len = 0x6b90f0 

Address of i = 0x7fffffffecd4 

Address of j = 0x7fffffffecd8 

Address of x = 0x6bc3a0 

Address of y = 0x6bc428 

Address of z = 0x6bc424 

Address of array1 = 0x6bc440 

Address of array2 = 0x6bc3c0 

Address of array3 = 0x6bc5e0 
HERE 1 : enable_memreq_tracing = 1
-- PC: (0x400cdf) 

-- PC: (0x400ce9) 

-- PC: (0x400cf2) 

-- PC: (0x400d24) 

-- PC: (0x400d24) 

-- PC: (0x400d24) 

-- PC: (0x400d24) 

-- PC: (0x400d24) 

-- PC: (0x400d24) 

-- PC: (0x400d28) 

-- PC: (0x400d28) 

-- PC: (0x400d28) 

-- PC: (0x400d28) 

-- PC: (0x400d28) 

-- PC: (0x400d2c) 

-- PC: (0x400d2c) 

-- PC: (0x400d2c) 

-- PC: (0x400d2c) 

-- PC: (0x400d2c) 

-- PC: (0x400d2c) 

-- PC: (0x400d30) 

-- PC: (0x400d30) 

-- PC: (0x400d30) 

-- PC: (0x400d30) 

-- PC: (0x400d30) 

-- PC: (0x400d30) 

-- PC: (0x400d30) 

-- PC: (0x400d33) 

-- PC: (0x400d33) 

-- PC: (0x400d33) 

-- PC: (0x400d33) 

-- PC: (0x400d33) 

-- PC: (0x400d33) 

-- PC: (0x400d38) 

-- PC: (0x400d38) 

-- PC: (0x400d38) 

-- PC: (0x400d38) 

-- PC: (0x400d38) 

-- PC: (0x400d38) 

-- PC: (0x400d38) 

-- PC: (0x400d38) 

-- PC: (0x400d38) 

-- Tick (68347500) -- ISN: (77590) : S -> (0x1) at (0x6bc5e4) -- Size = (4)-- PC: (0x400cdf) 

 -- vaddr (0x6bc5e4) -- paddr (0xbc5e4) 

-- Tick (68347500) -- ISN: (77592) : S -> (0x0) at (0x7fffffffecd8) -- Size = (4)-- PC: (0x400ce9) 

 -- vaddr (0x7fffffffecd8) -- paddr (0xc5cd8) 

-- Tick (68347500) -- ISN: (77596) : L from (0x7fffffffecd8) -- of Size = (4)-- PC: (0x400cf2) 

 -- vaddr (0x7fffffffecd8) -- paddr (0xc5cd8) 

-- PC: (0x400d38) 

-- PC: (0x400d38) 

-- PC: (0x400d38) 

-- PC: (0x400d38) 

-- PC: (0x400d38) 

-- PC: (0x400d38) 

-- PC: (0x400d38) 

-- PC: (0x400d38) 

-- PC: (0x400d38) 

-- PC: (0x400d38) 

-- PC: (0x400d3d) 

-- PC: (0x400d38) 

-- PC: (0x400d3d) 

-- PC: (0x400d38) 

-- PC: (0x400d3d) 

-- PC: (0x400d3d) 

-- PC: (0x400d3d) 

-- PC: (0x400d3d) 

-- PC: (0x400d3d) 

-- PC: (0x400d3d) 

-- PC: (0x400d40) 

-- PC: (0x400d40) 

-- PC: (0x400d40) 

-- PC: (0x400d40) 

-- PC: (0x400d40) 

-- PC: (0x400d40) 

-- ReadReq [d40:d7f] IF Miss --  Latency: 502 

-- PC: (0x400cfc) 

-- PC: (0x400cfc) 

-- PC: (0x400d01) 

-- PC: (0x400d01) 

-- PC: (0x400cf0) 

-- PC: (0x400d0a) 

-- PC: (0x400d0a) 

-- PC: (0x400d0a) 

-- Sqsh -> ISN (77595)

-- ReadCleanReq [d40:d7f] IF Miss --  Latency: 521 

-- PC: (0x400d0a) 

-- PC: (0x400d0a) 

-- ReadReq [d00:d3f] IF Hit -- Blk -> state: 5 (S) valid: 1 writable: 0 readable: 1 dirty: 0 | tag: 0x3 set: 0x4 way: 0 Latency: 2 

-- PC: (0x400e4e) 

-- PC: (0x400e4e) 

-- PC: (0x400e52) 

-- PC: (0x400e52) 

-- PC: (0x400e52) 

-- PC: (0x400e52) 

-- PC: (0x400e52) 

-- PC: (0x400e52) 

-- PC: (0x400e52) 

-- PC: (0x400e52) 

-- PC: (0x400cdf) 

-- PC: (0x400cdf) 

-- PC: (0x400cdf) 

-- PC: (0x400cdf) 

-- PC: (0x400cdf) 

-- PC: (0x400cdf) 

-- PC: (0x400cdf) 

-- PC: (0x400cdf) 

-- PC: (0x400ce9) 

-- PC: (0x400ce9) 

-- PC: (0x400ce9) 

-- PC: (0x400ce9) 

-- PC: (0x400ce9) 

-- PC: (0x400ce9) 

-- PC: (0x400cf0) 

-- PC: (0x400cf0) 

-- PC: (0x400cf0) 

-- PC: (0x400cf0) 

-- PC: (0x400cf0) 

-- PC: (0x400cf0) 

-- PC: (0x400cf0) 

-- PC: (0x400cf0) 

-- PC: (0x400d0a) 

-- PC: (0x400d0a) 

-- PC: (0x400d0a) 

-- PC: (0x400d0a) 

-- PC: (0x400d0a) 

-- PC: (0x400d0a) 

-- PC: (0x400d0a) 

-- PC: (0x400d0d) 

-- PC: (0x400d0d) 

-- PC: (0x400d0d) 

-- PC: (0x400d0d) 

-- PC: (0x400d0d) 

-- PC: (0x400d0d) 

-- PC: (0x400d0d) 

-- PC: (0x400d0d) 

-- PC: (0x400d10) 

-- PC: (0x400d10) 

-- PC: (0x400d10) 

-- PC: (0x400d10) 

-- PC: (0x400d10) 

-- PC: (0x400d10) 

-- PC: (0x400d10) 

-- PC: (0x400d10) 

-- PC: (0x400d10) 

-- PC: (0x400d10) 

-- PC: (0x400d12) 

-- PC: (0x400d10) 

-- PC: (0x400d12) 

-- PC: (0x400d12) 

-- PC: (0x400d12) 

-- PC: (0x400d12) 

-- PC: (0x400d12) 

-- PC: (0x400d12) 

-- PC: (0x400d15) 

-- PC: (0x400d15) 

-- PC: (0x400d15) 

-- PC: (0x400d15) 

-- PC: (0x400d15) 

-- PC: (0x400d15) 

-- PC: (0x400d18) 

-- PC: (0x400d18) 

-- PC: (0x400d18) 

-- WriteReq [bc5e4:bc5e7] Miss --  Latency: 502 

-- PC: (0x400d18) 

-- PC: (0x400d18) 

-- PC: (0x400d18) 

-- PC: (0x400d18) 

-- PC: (0x400d18) 

-- PC: (0x400d18) 

-- PC: (0x400d18) 

-- PC: (0x400d1f) 

-- PC: (0x400d1f) 

-- PC: (0x400d1f) 

-- PC: (0x400d1f) 

-- PC: (0x400d1f) 

-- PC: (0x400d1f) 

-- PC: (0x400d1f) 

-- PC: (0x400d1f) 

-- PC: (0x400d1f) 

-- PC: (0x400d1f) 

-- PC: (0x400d1f) 

-- PC: (0x400d1f) 

-- PC: (0x400d1f) 

-- PC: (0x400d1f) 

-- PC: (0x400d1f) 

-- PC: (0x400d1f) 

-- PC: (0x400d1f) 

-- PC: (0x400d1f) 

-- PC: (0x400d24) 

-- PC: (0x400d1f) 

-- PC: (0x400d24) 

-- PC: (0x400d1f) 

-- PC: (0x400d24) 

-- PC: (0x400d24) 

-- PC: (0x400d24) 

-- PC: (0x400d24) 

-- PC: (0x400d24) 

-- PC: (0x400d24) 

-- PC: (0x400d28) 

-- PC: (0x400d28) 

-- PC: (0x400d28) 

-- ReadExReq [bc5c0:bc5ff] Miss --  Latency: 521 

-- PC: (0x400d28) 

-- PC: (0x400d28) 

-- PC: (0x400d28) 

-- PC: (0x400d28) 

-- PC: (0x400d28) 

-- PC: (0x400d2c) 

-- PC: (0x400d2c) 

-- PC: (0x400d2c) 

-- PC: (0x400d2c) 

-- PC: (0x400d2c) 

-- PC: (0x400d2c) 

-- PC: (0x400d30) 

-- PC: (0x400d30) 

-- PC: (0x400d30) 

-- PC: (0x400d30) 

-- PC: (0x400d30) 

-- PC: (0x400d30) 

-- PC: (0x400d30) 

-- PC: (0x400d33) 

-- PC: (0x400d33) 

-- PC: (0x400d33) 

-- PC: (0x400d33) 

-- PC: (0x400d33) 

-- PC: (0x400d33) 

-- PC: (0x400d38) 

-- PC: (0x400d38) 

-- PC: (0x400d38) 

-- PC: (0x400d38) 

-- PC: (0x400d38) 

-- PC: (0x400d38) 

-- PC: (0x400d38) 

-- PC: (0x400d38) 

-- PC: (0x400d38) 

-- PC: (0x400d38) 

-- PC: (0x400d38) 

-- PC: (0x400d38) 

-- PC: (0x400d38) 

-- PC: (0x400d38) 

-- PC: (0x400d38) 

-- PC: (0x400d38) 

-- PC: (0x400d38) 

-- PC: (0x400d38) 

-- PC: (0x400d38) 

-- PC: (0x400d3d) 

-- PC: (0x400d38) 

-- PC: (0x400d3d) 

-- PC: (0x400d38) 

-- PC: (0x400d3d) 

-- PC: (0x400d3d) 

-- PC: (0x400d3d) 

-- PC: (0x400d3d) 

-- PC: (0x400d3d) 

-- PC: (0x400d3d) 

-- PC: (0x400d40) 

-- PC: (0x400d40) 

-- PC: (0x400d40) 

-- PC: (0x400d40) 

-- PC: (0x400d40) 

-- PC: (0x400d40) 

-- ReadReq [d40:d7f] IF Miss --  Latency: 502 

-- WritebackClean [14940:1497f] Hit -- Blk -> state: 7 (E) valid: 1 writable: 1 readable: 1 dirty: 0 | tag: 0x5 set: 0x25 way: 0x1-- PC: (0x400d40) 

-- PC: (0x400d40) 

-- PC: (0x400d40) 

-- PC: (0x400d40) 

-- PC: (0x400d43) 

-- PC: (0x400d43) 

-- PC: (0x400d43) 

-- PC: (0x400d43) 

-- PC: (0x400d43) 

-- PC: (0x400d43) 

-- PC: (0x400d43) 

-- PC: (0x400d43) 

-- PC: (0x400d43) 

-- PC: (0x400d43) 

-- PC: (0x400d49) 

-- PC: (0x400d49) 

-- PC: (0x400d49) 

-- PC: (0x400d49) 

-- PC: (0x400d49) 

-- PC: (0x400d49) 

-- PC: (0x400d49) 

-- PC: (0x400d49) 

-- PC: (0x400d4f) 

-- PC: (0x400d4f) 

-- PC: (0x400d4f) 

-- PC: (0x400d4f) 

-- PC: (0x400d4f) 

-- PC: (0x400d4f) 

-- PC: (0x400d4f) 

-- PC: (0x400d4f) 

-- PC: (0x400d4f) 

-- PC: (0x400d4f) 

-- PC: (0x400d55) 

-- PC: (0x400d55) 

-- PC: (0x400d55) 

-- PC: (0x400d55) 

-- PC: (0x400d55) 

-- PC: (0x400d55) 

-- PC: (0x400d55) 

-- PC: (0x400d55) 

-- PC: (0x400d55) 

-- PC: (0x400d55) 

-- PC: (0x400d55) 

-- PC: (0x400d55) 

-- PC: (0x400d55) 

-- PC: (0x400d55) 

-- PC: (0x400d5b) 

-- PC: (0x400d5b) 

-- PC: (0x400d5b) 

-- PC: (0x400d5b) 

-- PC: (0x400d5b) 

-- PC: (0x400d5b) 

-- PC: (0x400d5b) 

-- PC: (0x400d5b) 

-- PC: (0x400d5b) 

-- PC: (0x400d5b) 

-- PC: (0x400d61) 

-- PC: (0x400d61) 

-- PC: (0x400d61) 

-- PC: (0x400d61) 

-- PC: (0x400d61) 

-- PC: (0x400d61) 

-- PC: (0x400d61) 

-- PC: (0x400d61) 

-- PC: (0x400d67) 

-- PC: (0x400d67) 

-- PC: (0x400d67) 

-- PC: (0x400d67) 

-- PC: (0x400d67) 

-- PC: (0x400d67) 

-- PC: (0x400d67) 

-- PC: (0x400d67) 

-- PC: (0x400d6c) 

-- PC: (0x400d6c) 

-- PC: (0x400d6c) 

-- PC: (0x400d6c) 

-- PC: (0x400d6c) 

-- PC: (0x400d6c) 

-- PC: (0x400d6c) 

-- PC: (0x400d6c) 

-- PC: (0x400d71) 

-- PC: (0x400d71) 

-- PC: (0x400d71) 

-- PC: (0x400d71) 

-- PC: (0x400d71) 

-- PC: (0x400d71) 

-- PC: (0x400d71) 

-- PC: (0x400d71) 

-- PC: (0x400d71) 

-- PC: (0x400d71) 

-- PC: (0x400d71) 

-- PC: (0x400d71) 

-- PC: (0x400d71) 

-- PC: (0x400d71) 

-- PC: (0x400d71) 

-- PC: (0x400d71) 

-- PC: (0x400d71) 

-- PC: (0x400d71) 

-- PC: (0x400d71) 

-- PC: (0x400d71) 

-- PC: (0x400d76) 

-- PC: (0x400d71) 

-- PC: (0x400d76) 

-- PC: (0x400d71) 

-- PC: (0x400d76) 

-- PC: (0x400d76) 

-- PC: (0x400d76) 

-- PC: (0x400d76) 

-- PC: (0x400d76) 

-- PC: (0x400d76) 

-- PC: (0x400d76) 

-- PC: (0x400d76) 

-- PC: (0x400d79) 

-- PC: (0x400d79) 

-- PC: (0x400d79) 

-- PC: (0x400d79) 

-- PC: (0x400d79) 

-- PC: (0x400d79) 

-- PC: (0x400d7c) 

-- PC: (0x400d7c) 

-- PC: (0x400d7c) 

-- PC: (0x400d7c) 

-- PC: (0x400d7c) 

-- PC: (0x400d7c) 

-- PC: (0x400d7c) 

-- PC: (0x400d7c) 

-- PC: (0x400d7c) 

-- ReadReq [d80:dbf] IF Miss --  Latency: 502 

-- ReadCleanReq [d80:dbf] IF Miss --  Latency: 521 

-- WritebackDirty [c45c0:c45ff] Miss -- -- WriteReq [c5cd8:c5cdb] Hit -- Blk -> state: f (M) valid: 1 writable: 1 readable: 1 dirty: 1 | tag: 0x18 set: 0x173 way: 0 Latency: 2 

-- PC: (0x400d0a) 

-- PC: (0x400d0a) 

-- Tick (68439500) -- ISN: (77635) : L from (0x7fffffffecd8) -- of Size = (4)-- PC: (0x400d0a) 

 -- vaddr (0x7fffffffecd8) -- paddr (0xc5cd8) 

-- ReadReq [c5cd8:c5cdb] Hit -- Blk -> state: f (M) valid: 1 writable: 1 readable: 1 dirty: 1 | tag: 0x18 set: 0x173 way: 0 Latency: 2 

-- PC: (0x400d0a) 

-- PC: (0x400d0a) 

-- PC: (0x400d0d) 

-- PC: (0x400d0d) 

-- PC: (0x400d0d) 

-- PC: (0x400d0d) 

-- PC: (0x400d10) 

-- PC: (0x400cf2) 

-- PC: (0x400cf2) 

-- PC: (0x400cf2) 

-- Sqsh -> ISN (77640)

-- PC: (0x400d0d) 

-- PC: (0x400d0d) 

-- PC: (0x400d10) 

-- PC: (0x400d10) 

-- PC: (0x400d10) 

-- PC: (0x400d10) 

-- PC: (0x400d10) 

-- PC: (0x400d10) 

-- PC: (0x400d10) 

-- PC: (0x400d10) 

-- PC: (0x400cf2) 

-- PC: (0x400cf2) 

-- PC: (0x400cf2) 

-- PC: (0x400cf2) 

-- ReadReq [cc0:cff] IF Hit -- Blk -> state: 5 (S) valid: 1 writable: 0 readable: 1 dirty: 0 | tag: 0x3 set: 0x3 way: 0 Latency: 2 

-- PC: (0x400cf2) 

-- PC: (0x400cf2) 

-- PC: (0x400cf2) 

-- PC: (0x400cf2) 

-- PC: (0x400cf2) 

-- PC: (0x400cf5) 

-- PC: (0x400cf5) 

-- PC: (0x400cf5) 

-- PC: (0x400cf5) 

-- PC: (0x400cf5) 

-- PC: (0x400cf5) 

-- PC: (0x400cf5) 

-- PC: (0x400cf5) 

-- PC: (0x400cfa) 

-- PC: (0x400cfa) 

-- PC: (0x400cfa) 

-- PC: (0x400cfa) 

-- PC: (0x400cfa) 

-- PC: (0x400cfa) 

-- PC: (0x400cfc) 

-- PC: (0x400cfc) 

-- PC: (0x400cfc) 

-- PC: (0x400cfc) 

-- PC: (0x400cfc) 

-- PC: (0x400cfc) 

-- PC: (0x400cfc) 

-- PC: (0x400cfc) 

-- PC: (0x400cfc) 

-- ReadReq [d00:d3f] IF Hit -- Blk -> state: 5 (S) valid: 1 writable: 0 readable: 1 dirty: 0 | tag: 0x3 set: 0x4 way: 0 Latency: 2 

-- PC: (0x400cfc) 

-- PC: (0x400cfc) 

-- PC: (0x400cfc) 

-- PC: (0x400cfc) 

-- PC: (0x400cfc) 

-- PC: (0x400cfc) 

-- PC: (0x400cfc) 

-- PC: (0x400cfc) 

-- PC: (0x400cfc) 

-- PC: (0x400cfc) 

-- PC: (0x400cfc) 

-- PC: (0x400cfc) 

-- PC: (0x400cfc) 

-- PC: (0x400cfc) 

-- PC: (0x400d01) 

-- PC: (0x400cfc) 

-- PC: (0x400d01) 

-- PC: (0x400cfc) 

-- PC: (0x400d01) 

-- PC: (0x400d01) 

-- PC: (0x400d01) 

-- PC: (0x400d01) 

-- PC: (0x400d01) 

-- PC: (0x400d01) 

-- PC: (0x400d04) 

-- PC: (0x400d04) 

-- PC: (0x400d04) 

-- PC: (0x400d04) 

-- PC: (0x400d04) 

-- PC: (0x400d04) 

-- PC: (0x400d04) 

-- PC: (0x400d04) 

-- PC: (0x400d07) 

-- PC: (0x400d07) 

-- PC: (0x400d07) 

-- PC: (0x400d07) 

-- PC: (0x400d07) 

-- PC: (0x400d07) 

-- PC: (0x400d07) 

-- PC: (0x400d07) 

-- PC: (0x400d07) 

-- PC: (0x400d07) 

-- PC: (0x400d07) 

-- PC: (0x400d0a) 

-- PC: (0x400d0a) 

-- PC: (0x400d0a) 

-- PC: (0x400d0a) 

-- PC: (0x400d0a) 

-- PC: (0x400d0a) 

-- PC: (0x400d0d) 

-- PC: (0x400d0d) 

-- PC: (0x400d0d) 

-- PC: (0x400d0d) 

-- PC: (0x400d0d) 

-- PC: (0x400d0d) 

-- PC: (0x400d0d) 

-- PC: (0x400d0d) 

-- PC: (0x400d10) 

-- PC: (0x400d10) 

-- PC: (0x400d10) 

-- PC: (0x400d10) 

-- PC: (0x400d10) 

-- PC: (0x400d10) 

-- PC: (0x400d10) 

-- PC: (0x400d10) 

-- PC: (0x400d10) 

-- PC: (0x400d10) 

-- PC: (0x400d10) 

-- PC: (0x400d12) 

-- PC: (0x400d10) 

-- PC: (0x400d12) 

-- PC: (0x400d10) 

-- PC: (0x400d12) 

-- PC: (0x400d12) 

-- PC: (0x400d12) 

-- PC: (0x400d12) 

-- PC: (0x400d12) 

-- PC: (0x400d12) 

-- PC: (0x400d15) 

-- PC: (0x400d15) 

-- PC: (0x400d15) 

-- PC: (0x400d15) 

-- PC: (0x400d15) 

-- PC: (0x400d15) 

-- PC: (0x400d15) 

-- PC: (0x400d15) 

-- PC: (0x400d15) 

-- PC: (0x400d18) 

-- PC: (0x400d18) 

-- PC: (0x400d18) 

-- PC: (0x400d18) 

-- PC: (0x400d18) 

-- PC: (0x400d18) 

-- PC: (0x400d18) 

-- PC: (0x400d1f) 

-- PC: (0x400d1f) 

-- PC: (0x400d1f) 

-- PC: (0x400d1f) 

-- PC: (0x400d1f) 

-- PC: (0x400d1f) 

-- PC: (0x400d1f) 

-- PC: (0x400d1f) 

-- PC: (0x400d1f) 

-- PC: (0x400d1f) 

-- PC: (0x400d1f) 

-- PC: (0x400d1f) 

-- PC: (0x400d1f) 

-- PC: (0x400d1f) 

-- PC: (0x400d1f) 

-- PC: (0x400d1f) 

-- PC: (0x400d1f) 

-- PC: (0x400d1f) 

-- PC: (0x400d24) 

-- PC: (0x400d1f) 

-- PC: (0x400d24) 

-- PC: (0x400d1f) 

-- PC: (0x400d24) 

-- PC: (0x400d24) 

-- PC: (0x400d24) 

-- PC: (0x400cf2) 

-- PC: (0x400cf2) 

-- PC: (0x400d24) 

-- PC: (0x400d24) 

-- PC: (0x400d24) 

-- PC: (0x400d24) 

-- PC: (0x400d24) 

-- PC: (0x400d24) 

-- PC: (0x400d28) 

-- PC: (0x400d28) 

-- PC: (0x400d28) 

-- PC: (0x400d28) 

-- PC: (0x400d28) 

-- PC: (0x400d2c) 

-- PC: (0x400d2c) 

-- PC: (0x400d2c) 

-- PC: (0x400d2c) 

-- PC: (0x400d2c) 

-- PC: (0x400d2c) 

-- PC: (0x400d30) 

-- PC: (0x400d30) 

-- PC: (0x400d30) 

-- PC: (0x400d30) 

-- PC: (0x400d30) 

-- PC: (0x400d30) 

-- PC: (0x400d30) 

-- PC: (0x400d33) 

-- PC: (0x400d33) 

-- PC: (0x400d33) 

-- PC: (0x400d33) 

-- PC: (0x400d33) 

-- PC: (0x400d33) 

-- PC: (0x400d38) 

-- PC: (0x400d38) 

-- PC: (0x400d38) 

-- PC: (0x400d38) 

-- PC: (0x400d38) 

-- PC: (0x400d38) 

-- PC: (0x400d38) 

-- PC: (0x400d38) 

-- PC: (0x400d38) 

-- Tick (68446500) -- ISN: (77684) : L from (0x7fffffffecd8) -- of Size = (4)-- PC: (0x400cf2) 

 -- vaddr (0x7fffffffecd8) -- paddr (0xc5cd8) 

-- ReadReq [c5cd8:c5cdb] Hit -- Blk -> state: f (M) valid: 1 writable: 1 readable: 1 dirty: 1 | tag: 0x18 set: 0x173 way: 0 Latency: 2 

-- PC: (0x400d38) 

-- PC: (0x400d38) 

-- PC: (0x400d38) 

-- PC: (0x400d38) 

-- PC: (0x400d38) 

-- PC: (0x400d38) 

-- PC: (0x400d38) 

-- PC: (0x400d38) 

-- PC: (0x400d38) 

-- PC: (0x400d38) 

-- PC: (0x400d3d) 

-- PC: (0x400d38) 

-- PC: (0x400d3d) 

-- PC: (0x400d38) 

-- PC: (0x400d3d) 

-- PC: (0x400d3d) 

-- PC: (0x400d3d) 

-- PC: (0x400d3d) 

-- PC: (0x400d3d) 

-- PC: (0x400d3d) 

-- PC: (0x400d40) 

-- PC: (0x400d40) 

-- PC: (0x400d40) 

-- PC: (0x400d40) 

-- PC: (0x400d40) 

-- PC: (0x400d40) 

-- ReadReq [d40:d7f] IF Hit -- Blk -> state: 5 (S) valid: 1 writable: 0 readable: 1 dirty: 0 | tag: 0x3 set: 0x5 way: 0 Latency: 2 

-- PC: (0x400cfc) 

-- PC: (0x400cfc) 

-- PC: (0x400d01) 

-- PC: (0x400d01) 

-- PC: (0x400d07) 

-- PC: (0x400d07) 

-- PC: (0x400d0a) 

-- Tick (68447500) -- ISN: (77692) : L from (0x7fffffffecd8) -- of Size = (4)-- PC: (0x400d01) 

 -- vaddr (0x7fffffffecd8) -- paddr (0xc5cd8) 

-- ReadReq [c5cd8:c5cdb] Hit -- Blk -> state: f (M) valid: 1 writable: 1 readable: 1 dirty: 1 | tag: 0x18 set: 0x173 way: 0 Latency: 2 

-- PC: (0x400cfc) 

-- PC: (0x400d0a) 

-- PC: (0x400d40) 

-- PC: (0x400d40) 

-- PC: (0x400d40) 

-- PC: (0x400d40) 

-- PC: (0x400d43) 

-- PC: (0x400d43) 

-- PC: (0x400d43) 

-- PC: (0x400d43) 

-- PC: (0x400d43) 

-- PC: (0x400d43) 

-- PC: (0x400d43) 

-- PC: (0x400d43) 

-- PC: (0x400d43) 

-- PC: (0x400d43) 

-- PC: (0x400d49) 

-- PC: (0x400d49) 

-- PC: (0x400d49) 

-- PC: (0x400d49) 

-- PC: (0x400d49) 

-- PC: (0x400d49) 

-- PC: (0x400d49) 

-- PC: (0x400d49) 

-- PC: (0x400d4f) 

-- PC: (0x400d4f) 

-- PC: (0x400d4f) 

-- PC: (0x400d4f) 

-- PC: (0x400d4f) 

-- PC: (0x400d4f) 

-- PC: (0x400d4f) 

-- PC: (0x400d4f) 

-- PC: (0x400d4f) 

-- PC: (0x400d4f) 

-- PC: (0x400d55) 

-- PC: (0x400d55) 

-- PC: (0x400d55) 

-- PC: (0x400d55) 

-- PC: (0x400d55) 

-- PC: (0x400d55) 

-- PC: (0x400d55) 

-- PC: (0x400d55) 

-- PC: (0x400d55) 

-- PC: (0x400d55) 

-- Tick (68448000) -- ISN: (77689) : S -> (0x1) at (0x7fffffffecc8) -- Size = (8)-- PC: (0x400cfc) 

 -- vaddr (0x7fffffffecc8) -- paddr (0xc5cc8) 

-- Tick (68448000) -- ISN: (77696) : L from (0x7fffffffecd8) -- of Size = (4)-- PC: (0x400d0a) 

 -- vaddr (0x7fffffffecd8) -- paddr (0xc5cd8) 

-- ReadReq [c5cd8:c5cdb] Hit -- Blk -> state: f (M) valid: 1 writable: 1 readable: 1 dirty: 1 | tag: 0x18 set: 0x173 way: 0 Latency: 2 

-- PC: (0x400d55) 

-- PC: (0x400d55) 

-- PC: (0x400d55) 

-- PC: (0x400d55) 

-- PC: (0x400d5b) 

-- PC: (0x400d5b) 

-- PC: (0x400d5b) 

-- PC: (0x400d5b) 

-- PC: (0x400d5b) 

-- PC: (0x400d5b) 

-- PC: (0x400d5b) 

-- PC: (0x400d5b) 

-- PC: (0x400d5b) 

-- PC: (0x400d5b) 

-- PC: (0x400d61) 

-- PC: (0x400d61) 

-- PC: (0x400d61) 

-- PC: (0x400d61) 

-- PC: (0x400d61) 

-- PC: (0x400d61) 

-- PC: (0x400d61) 

-- PC: (0x400d61) 

-- PC: (0x400d67) 

-- PC: (0x400d67) 

-- PC: (0x400d67) 

-- PC: (0x400d67) 

-- PC: (0x400d67) 

-- PC: (0x400d67) 

-- PC: (0x400d67) 

-- PC: (0x400d67) 

-- PC: (0x400d6c) 

-- PC: (0x400d6c) 

-- PC: (0x400d6c) 

-- PC: (0x400d6c) 

-- PC: (0x400d6c) 

-- PC: (0x400d6c) 

-- PC: (0x400d6c) 

-- PC: (0x400d6c) 

-- PC: (0x400d71) 

-- PC: (0x400d71) 

-- PC: (0x400d71) 

-- PC: (0x400d71) 

-- PC: (0x400d71) 

-- PC: (0x400d71) 

-- PC: (0x400d71) 

-- PC: (0x400d71) 

-- PC: (0x400cfc) 

-- PC: (0x400b4d) 

-- PC: (0x400b4d) 

-- PC: (0x400b4d) 

-- PC: (0x400b4d) 

-- Sqsh -> ISN (77691)

-- PC: (0x400b4d) 

-- PC: (0x400b4d) 

-- ReadReq [b40:b7f] IF Miss --  Latency: 502 

-- PC: (0x400cf2) 

-- PC: (0x400cf2) 

-- PC: (0x400cf5) 

-- PC: (0x400cf5) 

-- PC: (0x400cf5) 

-- PC: (0x400cf5) 

-- PC: (0x400cfa) 

-- PC: (0x400cfa) 

-- PC: (0x400cfa) 

-- PC: (0x400cfa) 

-- PC: (0x400cfc) 

-- PC: (0x400cfc) 

-- PC: (0x400cfc) 

-- PC: (0x400cfc) 

-- PC: (0x400cfc) 

-- PC: (0x400cfc) 

-- PC: (0x400cfc) 

-- PC: (0x400cfc) 

-- PC: (0x400cfc) 

-- PC: (0x400cfc) 

-- PC: (0x400cfc) 

-- PC: (0x400cfc) 

-- PC: (0x400b4d) 

-- PC: (0x400b4d) 

-- ReadCleanReq [b40:b7f] IF Hit -- Blk -> state: 7 (E) valid: 1 writable: 1 readable: 1 dirty: 0 | tag: 0 set: 0x2d way: 0 Latency: 21 

-- WriteReq [c5cc8:c5ccf] Hit -- Blk -> state: f (M) valid: 1 writable: 1 readable: 1 dirty: 1 | tag: 0x18 set: 0x173 way: 0 Latency: 2 

-- WritebackClean [5ff40:5ff7f] Hit -- Blk -> state: 7 (E) valid: 1 writable: 1 readable: 1 dirty: 0 | tag: 0x17 set: 0xfd way: 0-- PC: (0x400b4d) 

-- PC: (0x400b4d) 

-- PC: (0x400b4d) 

-- PC: (0x400b4d) 

-- PC: (0x400b4d) 

-- PC: (0x400b4d) 

-- PC: (0x400b4d) 

-- PC: (0x400b4e) 

-- PC: (0x400b4e) 

-- PC: (0x400b4e) 

-- PC: (0x400b4e) 

-- PC: (0x400b4e) 

-- PC: (0x400b4e) 

-- PC: (0x400b4e) 

-- PC: (0x400b4e) 

-- PC: (0x400b51) 

-- PC: (0x400b51) 

-- PC: (0x400b51) 

-- PC: (0x400b51) 

-- PC: (0x400b51) 

-- PC: (0x400b51) 

-- PC: (0x400b54) 

-- PC: (0x400b54) 

-- PC: (0x400b54) 

-- PC: (0x400b54) 

-- PC: (0x400b54) 

-- PC: (0x400b54) 

-- PC: (0x400b57) 

-- PC: (0x400b57) 

-- PC: (0x400b57) 

-- PC: (0x400b57) 

-- PC: (0x400b57) 

-- PC: (0x400b57) 

-- PC: (0x400b57) 

-- PC: (0x400b57) 

-- PC: (0x400b57) 

-- PC: (0x400b57) 

-- PC: (0x400b5d) 

-- PC: (0x400b5d) 

-- PC: (0x400b5d) 

-- PC: (0x400b5d) 

-- PC: (0x400b5d) 

-- PC: (0x400b5d) 

-- PC: (0x400b5d) 

-- PC: (0x400b5d) 

-- PC: (0x400b5d) 

-- PC: (0x400b5d) 

-- PC: (0x400b5d) 

-- PC: (0x400b5d) 

-- PC: (0x400b60) 

-- PC: (0x400b60) 

-- PC: (0x400b60) 

-- PC: (0x400b60) 

-- PC: (0x400b60) 

-- PC: (0x400b60) 

-- PC: (0x400b60) 

-- PC: (0x400b60) 

-- PC: (0x400b60) 

-- PC: (0x400b60) 

-- PC: (0x400b60) 

-- PC: (0x400b62) 

-- PC: (0x400b60) 

-- PC: (0x400b62) 

-- PC: (0x400b60) 

-- PC: (0x400b62) 

-- PC: (0x400b62) 

-- PC: (0x400b62) 

-- PC: (0x400b62) 

-- PC: (0x400b62) 

-- PC: (0x400b62) 

-- PC: (0x400b65) 

-- PC: (0x400b65) 

-- PC: (0x400b65) 

-- PC: (0x400b65) 

-- PC: (0x400b65) 

-- PC: (0x400b65) 

-- PC: (0x400b67) 

-- PC: (0x400b67) 

-- PC: (0x400b67) 

-- PC: (0x400b67) 

-- PC: (0x400b67) 

-- PC: (0x400b67) 

-- PC: (0x400b67) 

-- PC: (0x400b67) 

-- PC: (0x400b6f) 

-- PC: (0x400b6f) 

-- PC: (0x400b6f) 

-- PC: (0x400b6f) 

-- PC: (0x400b6f) 

-- PC: (0x400b6f) 

-- PC: (0x400b6f) 

-- PC: (0x400b6f) 

-- PC: (0x400b6f) 

-- PC: (0x400b6f) 

-- PC: (0x400b6f) 

-- PC: (0x400b6f) 

-- PC: (0x400b6f) 

-- PC: (0x400b6f) 

-- PC: (0x400b76) 

-- PC: (0x400b76) 

-- PC: (0x400b76) 

-- PC: (0x400b76) 

-- PC: (0x400b76) 

-- PC: (0x400b76) 

-- PC: (0x400b76) 

-- PC: (0x400b76) 

-- PC: (0x400b79) 

-- PC: (0x400b79) 

-- PC: (0x400b79) 

-- PC: (0x400b79) 

-- PC: (0x400b79) 

-- PC: (0x400b79) 

-- PC: (0x400b79) 

-- PC: (0x400b79) 

-- PC: (0x400b79) 

-- PC: (0x400b79) 

-- PC: (0x400b79) 

-- PC: (0x400b79) 

-- PC: (0x400b7d) 

-- PC: (0x400b7d) 

-- PC: (0x400b7d) 

-- PC: (0x400b7d) 

-- PC: (0x400b7d) 

-- PC: (0x400b7d) 

-- PC: (0x400b80) 

-- PC: (0x400b80) 

-- PC: (0x400b80) 

-- PC: (0x400b80) 

-- PC: (0x400b80) 

-- PC: (0x400b80) 

-- ReadReq [b80:bbf] IF Miss --  Latency: 502 

-- ReadCleanReq [b80:bbf] IF Miss --  Latency: 521 

-- PC: (0x400b4d) 

-- PC: (0x400b4d) 

-- PC: (0x400b51) 

-- PC: (0x400b51) 

-- PC: (0x400b54) 

-- PC: (0x400b54) 

-- PC: (0x400b57) 

-- PC: (0x400b5d) 

-- PC: (0x400b4d) 

-- PC: (0x400b62) 

-- Tick (68465000) -- ISN: (77739) : S -> (0x10) at (0x7fffffffecc0) -- Size = (8)-- PC: (0x400b4d) 

 -- vaddr (0x7fffffffecc0) -- paddr (0xc5cc0) 

-- PC: (0x400b57) 

-- PC: (0x400b76) 

-- PC: (0x400b79) 

-- Tick (68465500) -- ISN: (77745) : L from (0x6b90f0) -- of Size = (4)-- PC: (0x400b57) 

 -- vaddr (0x6b90f0) -- paddr (0xb90f0) 

-- ReadReq [b90f0:b90f3] Hit -- Blk -> state: f (M) valid: 1 writable: 1 readable: 1 dirty: 1 | tag: 0x17 set: 0x43 way: 0 Latency: 2 

-- PC: (0x400b51) 

-- PC: (0x400b54) 

-- PC: (0x400b5d) 

-- PC: (0x400b62) 

-- Tick (68466000) -- ISN: (77742) : S -> (0x0) at (0x7fffffffecbc) -- Size = (4)-- PC: (0x400b51) 

 -- vaddr (0x7fffffffecbc) -- paddr (0xc5cbc) 

-- Tick (68466000) -- ISN: (77743) : S -> (0x0) at (0x7fffffffecb8) -- Size = (4)-- PC: (0x400b54) 

 -- vaddr (0x7fffffffecb8) -- paddr (0xc5cb8) 

-- Tick (68466000) -- ISN: (77746) : L from (0x7fffffffecbc) -- of Size = (4)-- PC: (0x400b5d) 

 -- vaddr (0x7fffffffecbc) -- paddr (0xc5cbc) 

-- Tick (68466000) -- ISN: (77751) : L from (0x7fffffffecbc) -- of Size = (4)-- PC: (0x400b62) 

 -- vaddr (0x7fffffffecbc) -- paddr (0xc5cbc) 

-- PC: (0x400b79) 

-- PC: (0x400b4d) 

-- PC: (0x400b4d) 

-- PC: (0x400b4d) 

-- PC: (0x400b4d) 

-- PC: (0x400b4e) 

-- PC: (0x400b4e) 

-- Tick (68466500) -- ISN: (77757) : L from (0x7fffffffecb8) -- of Size = (4)-- PC: (0x400b79) 

 -- vaddr (0x7fffffffecb8) -- paddr (0xc5cb8) 

-- PC: (0x400b4e) 

-- PC: (0x400b4e) 

-- PC: (0x400b51) 

-- PC: (0x400b51) 

-- WriteReq [c5cc0:c5cc7] Hit -- Blk -> state: f (M) valid: 1 writable: 1 readable: 1 dirty: 1 | tag: 0x18 set: 0x173 way: 0 Latency: 2 

-- PC: (0x400b51) 

-- PC: (0x400b51) 

-- PC: (0x400b54) 

-- PC: (0x400b54) 

-- PC: (0x400b54) 

-- PC: (0x400b54) 

-- PC: (0x400b57) 

-- PC: (0x400b57) 

-- PC: (0x400b57) 

-- PC: (0x400b57) 

-- PC: (0x400b76) 

-- PC: (0x400b57) 

-- PC: (0x400b57) 

-- PC: (0x400b5d) 

-- PC: (0x400b5d) 

-- PC: (0x400b5d) 

-- PC: (0x400b5d) 

-- Tick (68468000) -- ISN: (77756) : L from (0x6bc440) -- of Size = (4)-- PC: (0x400b76) 

 -- vaddr (0x6bc440) -- paddr (0xbc440) 

-- ReadReq [bc440:bc443] Miss --  Latency: 502 

-- WriteReq [c5cbc:c5cbf] Hit -- Blk -> state: f (M) valid: 1 writable: 1 readable: 1 dirty: 1 | tag: 0x18 set: 0x172 way: 0 Latency: 2 

-- PC: (0x400b5d) 

-- PC: (0x400b5d) 

-- PC: (0x400b60) 

-- PC: (0x400b60) 

-- PC: (0x400b60) 

-- PC: (0x400b60) 

-- PC: (0x400b60) 

-- PC: (0x400b60) 

-- PC: (0x400b60) 

-- PC: (0x400b60) 

-- PC: (0x400b62) 

-- PC: (0x400b62) 

-- PC: (0x400b62) 

-- PC: (0x400b62) 

-- PC: (0x400b65) 

-- PC: (0x400b65) 

-- PC: (0x400b65) 

-- PC: (0x400b65) 

-- PC: (0x400b67) 

-- PC: (0x400b67) 

-- PC: (0x400b67) 

-- PC: (0x400b67) 

-- PC: (0x400b6f) 

-- PC: (0x400b6f) 

-- PC: (0x400b6f) 

-- PC: (0x400b6f) 

-- PC: (0x400b6f) 

-- PC: (0x400b6f) 

-- PC: (0x400b76) 

-- PC: (0x400b76) 

-- ReadSharedReq [bc440:bc47f] Miss --  Latency: 521 

-- WriteReq [c5cb8:c5cbb] Hit -- Blk -> state: f (M) valid: 1 writable: 1 readable: 1 dirty: 1 | tag: 0x18 set: 0x172 way: 0 Latency: 2 

-- WritebackClean [60180:601bf] Hit -- Blk -> state: 7 (E) valid: 1 writable: 1 readable: 1 dirty: 0 | tag: 0x18 set: 0x6 way: 0-- WritebackClean [5ff80:5ffbf] Hit -- Blk -> state: 7 (E) valid: 1 writable: 1 readable: 1 dirty: 0 | tag: 0x17 set: 0xfe way: 0-- PC: (0x400b80) 

-- PC: (0x400b80) 

-- PC: (0x400b80) 

-- PC: (0x400b80) 

-- PC: (0x400b80) 

-- PC: (0x400b80) 

-- PC: (0x400b87) 

-- PC: (0x400b87) 

-- PC: (0x400b87) 

-- PC: (0x400b87) 

-- PC: (0x400b87) 

-- PC: (0x400b87) 

-- PC: (0x400b87) 

-- PC: (0x400b87) 

-- PC: (0x400b87) 

-- PC: (0x400b87) 

-- PC: (0x400b8b) 

-- PC: (0x400b8b) 

-- PC: (0x400b8b) 

-- PC: (0x400b8b) 

-- PC: (0x400b8b) 

-- PC: (0x400b8b) 

-- PC: (0x400b8b) 

-- PC: (0x400b8b) 

-- PC: (0x400b8b) 

-- PC: (0x400b8b) 

-- PC: (0x400b91) 

-- PC: (0x400b91) 

-- PC: (0x400b91) 

-- PC: (0x400b91) 

-- PC: (0x400b91) 

-- PC: (0x400b91) 

-- PC: (0x400b92) 

-- PC: (0x400b92) 

-- PC: (0x400b92) 

-- PC: (0x400b92) 

-- PC: (0x400b92) 

-- PC: (0x400b92) 

-- PC: (0x400b92) 

-- PC: (0x400b92) 

-- PC: (0x400b92) 

-- PC: (0x400b92) 

-- PC: (0x400b92) 

-- PC: (0x400b92) 

-- PC: (0x400b92) 

-- PC: (0x400b92) 

-- PC: (0x400b93) 

-- PC: (0x400b93) 

-- PC: (0x400b93) 

-- PC: (0x400b93) 

-- PC: (0x400b93) 

-- PC: (0x400b93) 

-- PC: (0x400b93) 

-- PC: (0x400b93) 

-- PC: (0x400b93) 

-- PC: (0x400b93) 

-- PC: (0x400b93) 

-- PC: (0x400d01) 

-- PC: (0x400b93) 

-- PC: (0x400d01) 

-- PC: (0x400d01) 

-- PC: (0x400d01) 

-- PC: (0x400d01) 

-- PC: (0x400d01) 

-- ReadReq [d00:d3f] IF Hit -- Blk -> state: 5 (S) valid: 1 writable: 0 readable: 1 dirty: 0 | tag: 0x3 set: 0x4 way: 0 Latency: 2 

-- PC: (0x400d01) 

-- PC: (0x400d01) 

-- PC: (0x400d01) 

-- PC: (0x400d01) 

-- PC: (0x400d01) 

-- PC: (0x400d04) 

-- PC: (0x400d04) 

-- PC: (0x400d04) 

-- PC: (0x400d04) 

-- PC: (0x400d04) 

-- PC: (0x400d04) 

-- PC: (0x400d04) 

-- PC: (0x400d04) 

-- PC: (0x400d07) 

-- PC: (0x400d07) 

-- PC: (0x400d07) 

-- PC: (0x400d07) 

-- PC: (0x400d07) 

-- PC: (0x400d07) 

-- PC: (0x400d07) 

-- PC: (0x400d07) 

-- PC: (0x400d0a) 

-- PC: (0x400d0a) 

-- PC: (0x400d0a) 

-- PC: (0x400d0a) 

-- PC: (0x400d0a) 

-- PC: (0x400d0a) 

-- PC: (0x400d0d) 

-- PC: (0x400d0d) 

-- PC: (0x400d0d) 

-- PC: (0x400d0d) 

-- PC: (0x400d0d) 

-- PC: (0x400d0d) 

-- PC: (0x400d0d) 

-- PC: (0x400d0d) 

-- PC: (0x400d10) 

-- PC: (0x400d10) 

-- PC: (0x400d10) 

-- PC: (0x400d10) 

-- PC: (0x400d10) 

-- PC: (0x400d10) 

-- PC: (0x400d10) 

-- PC: (0x400d10) 

-- PC: (0x400d10) 

-- PC: (0x400d10) 

-- PC: (0x400d10) 

-- PC: (0x400d10) 

-- PC: (0x400d10) 

-- PC: (0x400d10) 

-- PC: (0x400d10) 

-- PC: (0x400d12) 

-- PC: (0x400d10) 

-- PC: (0x400d12) 

-- PC: (0x400d10) 

-- PC: (0x400d12) 

-- PC: (0x400d12) 

-- PC: (0x400d12) 

-- PC: (0x400d12) 

-- PC: (0x400d12) 

-- PC: (0x400d12) 

-- PC: (0x400d15) 

-- PC: (0x400d15) 

-- PC: (0x400d15) 

-- PC: (0x400d15) 

-- PC: (0x400d15) 

-- PC: (0x400d15) 

-- PC: (0x400d18) 

-- PC: (0x400d18) 

-- PC: (0x400d18) 

-- PC: (0x400d18) 

-- PC: (0x400d18) 

-- PC: (0x400d18) 

-- PC: (0x400d18) 

-- PC: (0x400d1f) 

-- PC: (0x400d1f) 

-- PC: (0x400d1f) 

-- PC: (0x400d1f) 

-- PC: (0x400d1f) 

-- PC: (0x400d1f) 

-- PC: (0x400d1f) 

-- PC: (0x400d1f) 

-- PC: (0x400d1f) 

-- PC: (0x400d1f) 

-- PC: (0x400d1f) 

-- PC: (0x400d1f) 

-- PC: (0x400b87) 

-- PC: (0x400b8b) 

-- PC: (0x400b8b) 

-- PC: (0x400b92) 

-- PC: (0x400b92) 

-- PC: (0x400d1f) 

-- PC: (0x400d1f) 

-- PC: (0x400d1f) 

-- PC: (0x400d1f) 

-- PC: (0x400d1f) 

-- PC: (0x400d1f) 

-- PC: (0x400d1f) 

-- PC: (0x400d1f) 

-- PC: (0x400d1f) 

-- PC: (0x400d1f) 

-- PC: (0x400d24) 

-- PC: (0x400d1f) 

-- PC: (0x400d24) 

-- PC: (0x400d1f) 

-- PC: (0x400d24) 

-- PC: (0x400d24) 

-- PC: (0x400d24) 

-- PC: (0x400d24) 

-- PC: (0x400d24) 

-- PC: (0x400d24) 

-- PC: (0x400d28) 

-- PC: (0x400d28) 

-- PC: (0x400d28) 

-- PC: (0x400d28) 

-- PC: (0x400d28) 

-- PC: (0x400d2c) 

-- PC: (0x400d2c) 

-- PC: (0x400d2c) 

-- PC: (0x400d2c) 

-- PC: (0x400d2c) 

-- PC: (0x400d2c) 

-- PC: (0x400d30) 

-- PC: (0x400d30) 

-- PC: (0x400d30) 

-- PC: (0x400d30) 

-- PC: (0x400d30) 

-- PC: (0x400d30) 

-- PC: (0x400d30) 

-- PC: (0x400d33) 

-- PC: (0x400d33) 

-- PC: (0x400d33) 

-- PC: (0x400b93) 

-- Tick (68538000) -- ISN: (77769) : L from (0x7fffffffecc0) -- of Size = (8)-- PC: (0x400b92) 

 -- vaddr (0x7fffffffecc0) -- paddr (0xc5cc0) 

-- ReadReq [c5cc0:c5cc7] Hit -- Blk -> state: f (M) valid: 1 writable: 1 readable: 1 dirty: 1 | tag: 0x18 set: 0x173 way: 0 Latency: 2 

-- PC: (0x400d33) 

-- PC: (0x400d33) 

-- PC: (0x400d33) 

-- PC: (0x400d33) 

-- PC: (0x400d33) 

-- PC: (0x400d33) 

-- PC: (0x400d38) 

-- PC: (0x400d38) 

-- PC: (0x400d38) 

-- PC: (0x400d38) 

-- PC: (0x400d38) 

-- PC: (0x400d38) 

-- PC: (0x400d38) 

-- PC: (0x400d38) 

-- PC: (0x400d38) 

-- PC: (0x400d38) 

-- PC: (0x400d38) 

-- PC: (0x400d38) 

-- PC: (0x400d38) 

-- PC: (0x400d38) 

-- PC: (0x400d38) 

-- PC: (0x400d3d) 

-- PC: (0x400d38) 

-- PC: (0x400d3d) 

-- PC: (0x400d38) 

-- PC: (0x400d3d) 

-- PC: (0x400d3d) 

-- PC: (0x400d3d) 

-- PC: (0x400d3d) 

-- PC: (0x400d3d) 

-- PC: (0x400d3d) 

-- PC: (0x400d40) 

-- PC: (0x400d40) 

-- PC: (0x400d40) 

-- PC: (0x400d40) 

-- PC: (0x400d40) 

-- PC: (0x400d40) 

-- ReadReq [d40:d7f] IF Hit -- Blk -> state: 5 (S) valid: 1 writable: 0 readable: 1 dirty: 0 | tag: 0x3 set: 0x5 way: 0 Latency: 2 

-- PC: (0x400b93) 

-- PC: (0x400d01) 

-- PC: (0x400d07) 

-- PC: (0x400d07) 

-- PC: (0x400d0a) 

-- Tick (68539000) -- ISN: (77772) : L from (0x7fffffffecc8) -- of Size = (8)-- PC: (0x400b93) 

 -- vaddr (0x7fffffffecc8) -- paddr (0xc5cc8) 

-- ReadReq [c5cc8:c5ccf] Hit -- Blk -> state: f (M) valid: 1 writable: 1 readable: 1 dirty: 1 | tag: 0x18 set: 0x173 way: 0 Latency: 2 

-- PC: (0x400d40) 

-- PC: (0x400d40) 

-- PC: (0x400d40) 

-- PC: (0x400d40) 

-- PC: (0x400d43) 

-- PC: (0x400d43) 

-- PC: (0x400d43) 

-- PC: (0x400d43) 

-- PC: (0x400d43) 

-- PC: (0x400d43) 

-- PC: (0x400d43) 

-- PC: (0x400d43) 

-- PC: (0x400d43) 

-- PC: (0x400d43) 

-- PC: (0x400d49) 

-- PC: (0x400d49) 

-- PC: (0x400d49) 

-- PC: (0x400d49) 

-- PC: (0x400d49) 

-- PC: (0x400d49) 

-- PC: (0x400d49) 

-- PC: (0x400d49) 

-- PC: (0x400d4f) 

-- PC: (0x400d4f) 

-- PC: (0x400d4f) 

-- PC: (0x400d4f) 

-- PC: (0x400d4f) 

-- PC: (0x400d4f) 

-- PC: (0x400d4f) 

-- PC: (0x400d4f) 

-- PC: (0x400d4f) 

-- PC: (0x400d4f) 

-- PC: (0x400d55) 

-- PC: (0x400d55) 

-- PC: (0x400d55) 

-- PC: (0x400d55) 

-- PC: (0x400d55) 

-- PC: (0x400d55) 

-- PC: (0x400d55) 

-- PC: (0x400d55) 

-- PC: (0x400d55) 

-- PC: (0x400d55) 

-- PC: (0x400d01) 

-- PC: (0x400d0a) 

-- PC: (0x400d55) 

-- PC: (0x400d55) 

-- PC: (0x400d55) 

-- PC: (0x400d55) 

-- PC: (0x400d5b) 

-- PC: (0x400d5b) 

-- PC: (0x400d5b) 

-- PC: (0x400d5b) 

-- PC: (0x400d5b) 

-- PC: (0x400d5b) 

-- PC: (0x400d5b) 

-- PC: (0x400d5b) 

-- PC: (0x400d5b) 

-- PC: (0x400d5b) 

-- PC: (0x400d61) 

-- PC: (0x400d61) 

-- PC: (0x400d61) 

-- PC: (0x400d61) 

-- PC: (0x400d61) 

-- PC: (0x400d61) 

-- PC: (0x400d61) 

-- PC: (0x400d61) 

-- PC: (0x400d67) 

-- PC: (0x400d67) 

-- PC: (0x400d67) 

-- PC: (0x400d67) 

-- PC: (0x400d67) 

-- PC: (0x400d67) 

-- PC: (0x400d67) 

-- PC: (0x400d67) 

-- PC: (0x400d6c) 

-- PC: (0x400d6c) 

-- PC: (0x400d6c) 

-- PC: (0x400d6c) 

-- PC: (0x400d6c) 

-- PC: (0x400d6c) 

-- PC: (0x400d6c) 

-- PC: (0x400d6c) 

-- PC: (0x400d71) 

-- PC: (0x400d71) 

-- PC: (0x400d71) 

-- PC: (0x400d71) 

-- PC: (0x400d71) 

-- PC: (0x400d71) 

-- PC: (0x400d71) 

-- PC: (0x400d71) 

-- Tick (68540000) -- ISN: (77775) : L from (0x7fffffffecd8) -- of Size = (4)-- PC: (0x400d01) 

 -- vaddr (0x7fffffffecd8) -- paddr (0xc5cd8) 

-- ReadReq [c5cd8:c5cdb] Hit -- Blk -> state: f (M) valid: 1 writable: 1 readable: 1 dirty: 1 | tag: 0x18 set: 0x173 way: 0 Latency: 2 

-- Tick (68540000) -- ISN: (77779) : L from (0x7fffffffecd8) -- of Size = (4)-- PC: (0x400d0a) 

 -- vaddr (0x7fffffffecd8) -- paddr (0xc5cd8) 

-- ReadReq [c5cd8:c5cdb] Hit -- Blk -> state: f (M) valid: 1 writable: 1 readable: 1 dirty: 1 | tag: 0x18 set: 0x173 way: 0 Latency: 2 

-- PC: (0x400d71) 

-- PC: (0x400d71) 

-- PC: (0x400d71) 

-- PC: (0x400d71) 

-- PC: (0x400d71) 

-- PC: (0x400d71) 

-- PC: (0x400d71) 

-- PC: (0x400d71) 

-- PC: (0x400d71) 

-- PC: (0x400d71) 

-- PC: (0x400d71) 

-- PC: (0x400d71) 

-- PC: (0x400d76) 

-- PC: (0x400d71) 

-- PC: (0x400d76) 

-- PC: (0x400d71) 

-- PC: (0x400d76) 

-- PC: (0x400d76) 

-- PC: (0x400d76) 

-- PC: (0x400d76) 

-- PC: (0x400d76) 

-- PC: (0x400d76) 

-- PC: (0x400d76) 

-- PC: (0x400d76) 

-- PC: (0x400d79) 

-- PC: (0x400d79) 

-- PC: (0x400d79) 

-- PC: (0x400d79) 

-- PC: (0x400d79) 

-- PC: (0x400d79) 

-- PC: (0x400d7c) 

-- PC: (0x400d7c) 

-- PC: (0x400d7c) 

-- PC: (0x400d7c) 

-- PC: (0x400d7c) 

-- PC: (0x400d7c) 

-- PC: (0x400d7c) 

-- PC: (0x400d7c) 

-- PC: (0x400d7c) 

-- ReadReq [d80:dbf] IF Hit -- Blk -> state: 5 (S) valid: 1 writable: 0 readable: 1 dirty: 0 | tag: 0x3 set: 0x6 way: 0 Latency: 2 

-- PC: (0x400d7c) 

-- PC: (0x400d7c) 

-- PC: (0x400d7c) 

-- PC: (0x400d7c) 

-- PC: (0x400d81) 

-- PC: (0x400d81) 

-- PC: (0x400d81) 

-- PC: (0x400d81) 

-- PC: (0x400d81) 

-- PC: (0x400d81) 

-- PC: (0x400d81) 

-- PC: (0x400d81) 

-- PC: (0x400d81) 

-- PC: (0x400d81) 

-- PC: (0x400d81) 

-- PC: (0x400d81) 

-- PC: (0x400d81) 

-- PC: (0x400d81) 

-- PC: (0x400d81) 

-- PC: (0x400d81) 

-- PC: (0x400d86) 

-- PC: (0x400d81) 

-- PC: (0x400d86) 

-- PC: (0x400d81) 

-- PC: (0x400d86) 

-- PC: (0x400d86) 

-- PC: (0x400d86) 

-- PC: (0x400d86) 

-- PC: (0x400d86) 

-- PC: (0x400d86) 

-- PC: (0x400d86) 

-- PC: (0x400d86) 

-- PC: (0x400d89) 

-- PC: (0x400d89) 

-- PC: (0x400d89) 

-- PC: (0x400d89) 

-- PC: (0x400d89) 

-- PC: (0x400d89) 

-- PC: (0x400d8c) 

-- PC: (0x400d8c) 

-- PC: (0x400d8c) 

-- PC: (0x400d07) 

-- PC: (0x400d8c) 

-- PC: (0x400d8c) 

-- PC: (0x400d8c) 

-- PC: (0x400d8c) 

-- PC: (0x400d8c) 

-- PC: (0x400d8c) 

-- PC: (0x400d8c) 

-- PC: (0x400d8c) 

-- PC: (0x400d8c) 

-- PC: (0x400d8c) 

-- Tick (68542000) -- ISN: (77778) : S -> (0x1) at (0x7fffffffecd8) -- Size = (4)-- PC: (0x400d07) 

 -- vaddr (0x7fffffffecd8) -- paddr (0xc5cd8) 

-- PC: (0x400d0a) 

-- PC: (0x400d07) 

-- PC: (0x400d8c) 

-- PC: (0x400d8c) 

-- PC: (0x400d8c) 

-- PC: (0x400d07) 

-- PC: (0x400d0a) 

-- Sqsh -> ISN (77778)

-- PC: (0x400d0a) 

-- PC: (0x400d0a) 

-- ReadReq [d00:d3f] IF Hit -- Blk -> state: 5 (S) valid: 1 writable: 0 readable: 1 dirty: 0 | tag: 0x3 set: 0x4 way: 0 Latency: 2 

-- PC: (0x400d0a) 

-- PC: (0x400d0a) 

-- PC: (0x400d0a) 

-- PC: (0x400d0a) 

-- PC: (0x400d0a) 

-- PC: (0x400d0d) 

-- PC: (0x400d0d) 

-- PC: (0x400d0d) 

-- PC: (0x400d0d) 

-- PC: (0x400d0d) 

-- PC: (0x400d0d) 

-- PC: (0x400d0d) 

-- PC: (0x400d0d) 

-- PC: (0x400d10) 

-- PC: (0x400d10) 

-- PC: (0x400d10) 

-- PC: (0x400d10) 

-- PC: (0x400d10) 

-- PC: (0x400d10) 

-- PC: (0x400d10) 

-- PC: (0x400d10) 

-- PC: (0x400d10) 

-- PC: (0x400d10) 

-- PC: (0x400d10) 

-- PC: (0x400d12) 

-- PC: (0x400d10) 

-- PC: (0x400d12) 

-- PC: (0x400d10) 

-- PC: (0x400d12) 

-- PC: (0x400d12) 

-- PC: (0x400d12) 

-- PC: (0x400d12) 

-- PC: (0x400d12) 

-- PC: (0x400d12) 

-- PC: (0x400d15) 

-- PC: (0x400d15) 

-- PC: (0x400d15) 

-- PC: (0x400d15) 

-- PC: (0x400d15) 

-- PC: (0x400d15) 

-- PC: (0x400d18) 

-- PC: (0x400d18) 

-- PC: (0x400d18) 

-- PC: (0x400b76) 

-- PC: (0x400b76) 

-- PC: (0x400b79) 

-- PC: (0x400b79) 

-- PC: (0x400b79) 

-- PC: (0x400b79) 

-- PC: (0x400d18) 

-- PC: (0x400d18) 

-- PC: (0x400d18) 

-- PC: (0x400d18) 

-- PC: (0x400d18) 

-- PC: (0x400d18) 

-- PC: (0x400d18) 

-- PC: (0x400d1f) 

-- PC: (0x400d1f) 

-- PC: (0x400d1f) 

-- PC: (0x400d1f) 

-- PC: (0x400d1f) 

-- PC: (0x400d1f) 

-- PC: (0x400d1f) 

-- PC: (0x400d1f) 

-- PC: (0x400d1f) 

-- PC: (0x400d1f) 

-- PC: (0x400d1f) 

-- PC: (0x400d1f) 

-- PC: (0x400d1f) 

-- PC: (0x400d1f) 

-- PC: (0x400d1f) 

-- PC: (0x400d1f) 

-- PC: (0x400d1f) 

-- PC: (0x400d1f) 

-- PC: (0x400d24) 

-- PC: (0x400d1f) 

-- PC: (0x400d24) 

-- PC: (0x400d1f) 

-- PC: (0x400d24) 

-- PC: (0x400d24) 

-- PC: (0x400d24) 

-- PC: (0x400d24) 

-- PC: (0x400d24) 

-- PC: (0x400d24) 

-- PC: (0x400d28) 

-- PC: (0x400d28) 

-- PC: (0x400d28) 

-- PC: (0x400d28) 

-- PC: (0x400d28) 

-- PC: (0x400d28) 

-- PC: (0x400d28) 

-- PC: (0x400d28) 

-- PC: (0x400d2c) 

-- PC: (0x400d2c) 

-- PC: (0x400d2c) 

-- PC: (0x400d2c) 

-- PC: (0x400d2c) 

-- PC: (0x400d2c) 

-- PC: (0x400d30) 

-- PC: (0x400d30) 

-- PC: (0x400d30) 

-- PC: (0x400d30) 

-- PC: (0x400d30) 

-- PC: (0x400d30) 

-- PC: (0x400d30) 

-- PC: (0x400d33) 

-- PC: (0x400d33) 

-- PC: (0x400d33) 

-- PC: (0x400d33) 

-- PC: (0x400d33) 

-- PC: (0x400d33) 

-- PC: (0x400d38) 

-- PC: (0x400d38) 

-- PC: (0x400d38) 

-- PC: (0x400d38) 

-- PC: (0x400d38) 

-- PC: (0x400d38) 

-- PC: (0x400d38) 

-- PC: (0x400d38) 

-- PC: (0x400d38) 

-- PC: (0x400d38) 

-- PC: (0x400d38) 

-- PC: (0x400d38) 

-- PC: (0x400d38) 

-- PC: (0x400d38) 

-- PC: (0x400d38) 

-- PC: (0x400d38) 

-- PC: (0x400d38) 

-- PC: (0x400d38) 

-- PC: (0x400d38) 

-- PC: (0x400d3d) 

-- PC: (0x400d38) 

-- PC: (0x400d3d) 

-- PC: (0x400d38) 

-- PC: (0x400d3d) 

-- PC: (0x400d3d) 

-- PC: (0x400d3d) 

-- PC: (0x400d3d) 

-- PC: (0x400d3d) 

-- PC: (0x400d3d) 

-- PC: (0x400d40) 

-- PC: (0x400d40) 

-- PC: (0x400d40) 

-- PC: (0x400d40) 

-- PC: (0x400d40) 

-- PC: (0x400d40) 

-- ReadReq [d40:d7f] IF Hit -- Blk -> state: 5 (S) valid: 1 writable: 0 readable: 1 dirty: 0 | tag: 0x3 set: 0x5 way: 0 Latency: 2 

-- PC: (0x400b87) 

-- PC: (0x400b79) 

-- PC: (0x400b79) 

-- PC: (0x400d0a) 

-- Tick (68546500) -- ISN: (77764) : L from (0x6bc3c0) -- of Size = (1)-- PC: (0x400b87) 

 -- vaddr (0x6bc3c0) -- paddr (0xbc3c0) 

-- ReadReq [bc3c0:bc3c0] Miss --  Latency: 502 

-- PC: (0x400d0a) 

-- PC: (0x400b79) 

-- PC: (0x400b79) 

-- PC: (0x400b79) 

-- PC: (0x400b79) 

-- PC: (0x400b7d) 

-- PC: (0x400b7d) 

-- PC: (0x400d40) 

-- PC: (0x400d40) 

-- PC: (0x400d40) 

-- PC: (0x400d40) 

-- PC: (0x400d43) 

-- PC: (0x400d43) 

-- PC: (0x400d43) 

-- PC: (0x400d43) 

-- PC: (0x400d43) 

-- PC: (0x400d43) 

-- PC: (0x400d43) 

-- PC: (0x400d43) 

-- PC: (0x400d43) 

-- PC: (0x400d43) 

-- PC: (0x400d49) 

-- PC: (0x400d49) 

-- PC: (0x400d49) 

-- PC: (0x400d49) 

-- PC: (0x400d49) 

-- PC: (0x400d49) 

-- PC: (0x400d49) 

-- PC: (0x400d49) 

-- PC: (0x400d4f) 

-- PC: (0x400d4f) 

-- PC: (0x400d4f) 

-- PC: (0x400d4f) 

-- PC: (0x400d4f) 

-- PC: (0x400d4f) 

-- PC: (0x400d4f) 

-- PC: (0x400d4f) 

-- PC: (0x400d4f) 

-- PC: (0x400d4f) 

-- PC: (0x400d55) 

-- PC: (0x400d55) 

-- PC: (0x400d55) 

-- PC: (0x400d55) 

-- PC: (0x400d55) 

-- PC: (0x400d55) 

-- PC: (0x400d55) 

-- PC: (0x400d55) 

-- PC: (0x400d55) 

-- PC: (0x400d55) 

-- Tick (68547000) -- ISN: (77838) : L from (0x7fffffffecd8) -- of Size = (4)-- PC: (0x400d0a) 

 -- vaddr (0x7fffffffecd8) -- paddr (0xc5cd8) 

-- PC: (0x400b7d) 

-- PC: (0x400b7d) 

-- PC: (0x400b80) 

-- PC: (0x400b80) 

-- PC: (0x400b80) 

-- PC: (0x400b80) 

-- PC: (0x400b80) 

-- PC: (0x400b80) 

-- PC: (0x400b87) 

-- PC: (0x400b87) 

-- ReadSharedReq [bc3c0:bc3ff] Miss --  Latency: 521 

-- PC: (0x400d55) 

-- PC: (0x400d55) 

-- PC: (0x400d55) 

-- PC: (0x400d55) 

-- PC: (0x400d5b) 

-- PC: (0x400d5b) 

-- PC: (0x400d5b) 

-- PC: (0x400d5b) 

-- PC: (0x400d5b) 

-- PC: (0x400d5b) 

-- PC: (0x400d5b) 

-- PC: (0x400d5b) 

-- PC: (0x400d5b) 

-- PC: (0x400d5b) 

-- PC: (0x400d61) 

-- PC: (0x400d61) 

-- PC: (0x400d61) 

-- PC: (0x400d61) 

-- PC: (0x400d61) 

-- PC: (0x400d61) 

-- PC: (0x400d61) 

-- PC: (0x400d61) 

-- PC: (0x400d67) 

-- PC: (0x400d67) 

-- PC: (0x400d67) 

-- PC: (0x400d67) 

-- PC: (0x400d67) 

-- PC: (0x400d67) 

-- PC: (0x400d67) 

-- PC: (0x400d67) 

-- PC: (0x400d6c) 

-- PC: (0x400d6c) 

-- PC: (0x400d6c) 

-- PC: (0x400d6c) 

-- PC: (0x400d6c) 

-- PC: (0x400d6c) 

-- PC: (0x400d6c) 

-- PC: (0x400d6c) 

-- PC: (0x400d71) 

-- PC: (0x400d71) 

-- PC: (0x400d71) 

-- PC: (0x400d71) 

-- PC: (0x400d71) 

-- PC: (0x400d71) 

-- PC: (0x400d71) 

-- PC: (0x400d71) 

-- PC: (0x400d71) 

-- PC: (0x400d71) 

-- PC: (0x400d71) 

-- PC: (0x400d71) 

-- PC: (0x400d71) 

-- PC: (0x400d71) 

-- PC: (0x400d71) 

-- PC: (0x400d71) 

-- PC: (0x400d71) 

-- PC: (0x400d71) 

-- PC: (0x400d71) 

-- PC: (0x400d71) 

-- PC: (0x400d76) 

-- PC: (0x400d71) 

-- PC: (0x400d76) 

-- PC: (0x400d71) 

-- PC: (0x400d76) 

-- PC: (0x400d76) 

-- PC: (0x400d76) 

-- PC: (0x400d76) 

-- PC: (0x400d76) 

-- PC: (0x400d76) 

-- PC: (0x400d76) 

-- PC: (0x400d76) 

-- PC: (0x400d79) 

-- PC: (0x400d79) 

-- PC: (0x400d79) 

-- PC: (0x400d79) 

-- PC: (0x400d79) 

-- PC: (0x400d79) 

-- PC: (0x400d7c) 

-- PC: (0x400d7c) 

-- PC: (0x400d7c) 

-- PC: (0x400d7c) 

-- PC: (0x400d7c) 

-- PC: (0x400d7c) 

-- PC: (0x400d7c) 

-- PC: (0x400d7c) 

-- PC: (0x400d7c) 

-- ReadReq [d80:dbf] IF Hit -- Blk -> state: 5 (S) valid: 1 writable: 0 readable: 1 dirty: 0 | tag: 0x3 set: 0x6 way: 0 Latency: 2 

-- PC: (0x400d7c) 

-- PC: (0x400d7c) 

-- PC: (0x400d7c) 

-- PC: (0x400d7c) 

-- PC: (0x400d81) 

-- PC: (0x400d81) 

-- PC: (0x400d81) 

-- PC: (0x400d81) 

-- PC: (0x400d81) 

-- PC: (0x400d81) 

-- PC: (0x400d81) 

-- PC: (0x400d81) 

-- PC: (0x400d81) 

-- PC: (0x400d81) 

-- PC: (0x400d81) 

-- PC: (0x400d81) 

-- PC: (0x400d81) 

-- PC: (0x400d81) 

-- PC: (0x400d81) 

-- PC: (0x400d81) 

-- PC: (0x400d86) 

-- PC: (0x400d81) 

-- PC: (0x400d86) 

-- PC: (0x400d81) 

-- PC: (0x400d86) 

-- PC: (0x400d86) 

-- PC: (0x400d86) 

-- PC: (0x400d86) 

-- PC: (0x400d86) 

-- PC: (0x400d86) 

-- PC: (0x400d86) 

-- PC: (0x400d86) 

-- PC: (0x400d89) 

-- PC: (0x400d89) 

-- PC: (0x400d89) 

-- PC: (0x400d89) 

-- PC: (0x400d89) 

-- PC: (0x400d89) 

-- PC: (0x400d8c) 

-- PC: (0x400d8c) 

-- PC: (0x400d8c) 

-- PC: (0x400d10) 

-- PC: (0x400cf2) 

-- PC: (0x400cf2) 

-- PC: (0x400cf2) 

-- PC: (0x400cf2) 

-- Sqsh -> ISN (77843)

-- PC: (0x400cf2) 

-- PC: (0x400cf2) 

-- ReadReq [cc0:cff] IF Hit -- Blk -> state: 5 (S) valid: 1 writable: 0 readable: 1 dirty: 0 | tag: 0x3 set: 0x3 way: 0 Latency: 2 

-- PC: (0x400cf2) 

-- PC: (0x400cf2) 

-- PC: (0x400cf2) 

-- PC: (0x400cf2) 

-- PC: (0x400cf2) 

-- PC: (0x400cf5) 

-- PC: (0x400cf5) 

-- PC: (0x400cf5) 

-- PC: (0x400cf5) 

-- PC: (0x400cf5) 

-- PC: (0x400cf5) 

-- PC: (0x400cf5) 

-- PC: (0x400cf5) 

-- PC: (0x400cfa) 

-- PC: (0x400cfa) 

-- PC: (0x400cfa) 

-- PC: (0x400cfa) 

-- PC: (0x400cfa) 

-- PC: (0x400cfa) 

-- PC: (0x400cfc) 

-- PC: (0x400cfc) 

-- PC: (0x400cfc) 

-- PC: (0x400cfc) 

-- PC: (0x400cfc) 

-- PC: (0x400cfc) 

-- PC: (0x400cfc) 

-- PC: (0x400cfc) 

-- PC: (0x400cfc) 

-- ReadReq [d00:d3f] IF Hit -- Blk -> state: 5 (S) valid: 1 writable: 0 readable: 1 dirty: 0 | tag: 0x3 set: 0x4 way: 0 Latency: 2 

-- PC: (0x400cfc) 

-- PC: (0x400cfc) 

-- PC: (0x400cfc) 

-- PC: (0x400cfc) 

-- PC: (0x400cfc) 

-- PC: (0x400cfc) 

-- PC: (0x400cfc) 

-- PC: (0x400cfc) 

-- PC: (0x400cfc) 

-- PC: (0x400cfc) 

-- PC: (0x400cfc) 

-- PC: (0x400cfc) 

-- PC: (0x400cfc) 

-- PC: (0x400cfc) 

-- PC: (0x400d01) 

-- PC: (0x400cfc) 

-- PC: (0x400d01) 

-- PC: (0x400cfc) 

-- PC: (0x400d01) 

-- PC: (0x400d01) 

-- PC: (0x400d01) 

-- PC: (0x400d01) 

-- PC: (0x400d01) 

-- PC: (0x400d01) 

-- PC: (0x400d04) 

-- PC: (0x400d04) 

-- PC: (0x400d04) 

-- PC: (0x400d04) 

-- PC: (0x400d04) 

-- PC: (0x400d04) 

-- PC: (0x400d04) 

-- PC: (0x400d04) 

-- PC: (0x400d07) 

-- PC: (0x400d07) 

-- PC: (0x400d07) 

-- PC: (0x400d07) 

-- PC: (0x400d07) 

-- PC: (0x400d07) 

-- PC: (0x400d07) 

-- PC: (0x400d07) 

-- PC: (0x400d07) 

-- PC: (0x400d07) 

-- PC: (0x400d07) 

-- PC: (0x400d0a) 

-- PC: (0x400d0a) 

-- PC: (0x400d0a) 

-- PC: (0x400d0a) 

-- PC: (0x400d0a) 

-- PC: (0x400d0a) 

-- PC: (0x400d0d) 

-- PC: (0x400d0d) 

-- PC: (0x400d0d) 

-- PC: (0x400d0d) 

-- PC: (0x400d0d) 

-- PC: (0x400d0d) 

-- PC: (0x400d0d) 

-- PC: (0x400d0d) 

-- PC: (0x400d10) 

-- PC: (0x400d10) 

-- PC: (0x400d10) 

-- PC: (0x400d10) 

-- PC: (0x400d10) 

-- PC: (0x400d10) 

-- PC: (0x400d10) 

-- PC: (0x400d10) 

-- PC: (0x400d10) 

-- PC: (0x400d10) 

-- PC: (0x400d10) 

-- PC: (0x400d12) 

-- PC: (0x400d10) 

-- PC: (0x400d12) 

-- PC: (0x400d10) 

-- PC: (0x400d12) 

-- PC: (0x400d12) 

-- PC: (0x400d12) 

-- PC: (0x400d12) 

-- PC: (0x400d12) 

-- PC: (0x400d12) 

-- PC: (0x400d15) 

-- PC: (0x400d15) 

-- PC: (0x400d15) 

-- PC: (0x400d15) 

-- PC: (0x400d15) 

-- PC: (0x400d15) 

-- PC: (0x400d15) 

-- PC: (0x400d15) 

-- PC: (0x400d15) 

-- PC: (0x400d18) 

-- PC: (0x400d18) 

-- PC: (0x400d18) 

-- PC: (0x400d18) 

-- PC: (0x400d18) 

-- PC: (0x400d18) 

-- PC: (0x400d18) 

-- PC: (0x400d1f) 

-- PC: (0x400d1f) 

-- PC: (0x400d1f) 

-- PC: (0x400d1f) 

-- PC: (0x400d1f) 

-- PC: (0x400d1f) 

-- PC: (0x400d1f) 

-- PC: (0x400d1f) 

-- PC: (0x400d1f) 

-- PC: (0x400d1f) 

-- PC: (0x400d1f) 

-- PC: (0x400d1f) 

-- PC: (0x400d1f) 

-- PC: (0x400d1f) 

-- PC: (0x400d1f) 

-- PC: (0x400d1f) 

-- PC: (0x400d1f) 

-- PC: (0x400d1f) 

-- PC: (0x400d24) 

-- PC: (0x400d1f) 

-- PC: (0x400d24) 

-- PC: (0x400d1f) 

-- PC: (0x400d24) 

-- PC: (0x400d24) 

-- PC: (0x400d24) 

-- PC: (0x400cf2) 

-- PC: (0x400cf2) 

-- PC: (0x400d24) 

-- PC: (0x400d24) 

-- PC: (0x400d24) 

-- PC: (0x400d24) 

-- PC: (0x400d24) 

-- PC: (0x400d24) 

-- PC: (0x400d28) 

-- PC: (0x400d28) 

-- PC: (0x400d28) 

-- PC: (0x400d28) 

-- PC: (0x400d28) 

-- PC: (0x400d2c) 

-- PC: (0x400d2c) 

-- PC: (0x400d2c) 

-- PC: (0x400d2c) 

-- PC: (0x400d2c) 

-- PC: (0x400d2c) 

-- PC: (0x400d30) 

-- PC: (0x400d30) 

-- PC: (0x400d30) 

-- PC: (0x400d30) 

-- PC: (0x400d30) 

-- PC: (0x400d30) 

-- PC: (0x400d30) 

-- PC: (0x400d33) 

-- PC: (0x400d33) 

-- PC: (0x400d33) 

-- PC: (0x400d33) 

-- PC: (0x400d33) 

-- PC: (0x400d33) 

-- PC: (0x400d38) 

-- PC: (0x400d38) 

-- PC: (0x400d38) 

-- PC: (0x400d38) 

-- PC: (0x400d38) 

-- PC: (0x400d38) 

-- PC: (0x400d38) 

-- PC: (0x400d38) 

-- PC: (0x400d38) 

-- Tick (68553500) -- ISN: (77895) : L from (0x7fffffffecd8) -- of Size = (4)-- PC: (0x400cf2) 

 -- vaddr (0x7fffffffecd8) -- paddr (0xc5cd8) 

-- PC: (0x400d38) 

-- PC: (0x400d38) 

-- PC: (0x400d38) 

-- PC: (0x400d38) 

-- PC: (0x400d38) 

-- PC: (0x400d38) 

-- PC: (0x400d38) 

-- PC: (0x400d38) 

-- PC: (0x400d38) 

-- PC: (0x400d38) 

-- PC: (0x400d3d) 

-- PC: (0x400d38) 

-- PC: (0x400d3d) 

-- PC: (0x400d38) 

-- PC: (0x400d3d) 

-- PC: (0x400d3d) 

-- PC: (0x400d3d) 

-- PC: (0x400d3d) 

-- PC: (0x400d3d) 

-- PC: (0x400d3d) 

-- PC: (0x400d40) 

-- PC: (0x400d40) 

-- PC: (0x400d40) 

-- PC: (0x400d40) 

-- PC: (0x400d40) 

-- PC: (0x400d40) 

-- ReadReq [d40:d7f] IF Hit -- Blk -> state: 5 (S) valid: 1 writable: 0 readable: 1 dirty: 0 | tag: 0x3 set: 0x5 way: 0 Latency: 2 

-- PC: (0x400cfc) 

-- PC: (0x400cfc) 

-- PC: (0x400d01) 

-- PC: (0x400d01) 

-- PC: (0x400d07) 

-- PC: (0x400d07) 

-- PC: (0x400d0a) 

-- Tick (68554500) -- ISN: (77903) : L from (0x7fffffffecd8) -- of Size = (4)-- PC: (0x400d01) 

 -- vaddr (0x7fffffffecd8) -- paddr (0xc5cd8) 

-- PC: (0x400cfc) 

-- PC: (0x400d40) 

-- PC: (0x400d40) 

-- PC: (0x400d40) 

-- PC: (0x400d40) 

-- PC: (0x400d43) 

-- PC: (0x400d43) 

-- PC: (0x400d43) 

-- PC: (0x400d43) 

-- PC: (0x400d43) 

-- PC: (0x400d43) 

-- PC: (0x400d43) 

-- PC: (0x400d43) 

-- PC: (0x400d43) 

-- PC: (0x400d43) 

-- PC: (0x400d49) 

-- PC: (0x400d49) 

-- PC: (0x400d49) 

-- PC: (0x400d49) 

-- PC: (0x400d49) 

-- PC: (0x400d49) 

-- PC: (0x400d49) 

-- PC: (0x400d49) 

-- PC: (0x400d4f) 

-- PC: (0x400d4f) 

-- PC: (0x400d4f) 

-- PC: (0x400d4f) 

-- PC: (0x400d4f) 

-- PC: (0x400d4f) 

-- PC: (0x400d4f) 

-- PC: (0x400d4f) 

-- PC: (0x400d4f) 

-- PC: (0x400d4f) 

-- PC: (0x400d55) 

-- PC: (0x400d55) 

-- PC: (0x400d55) 

-- PC: (0x400d55) 

-- PC: (0x400d55) 

-- PC: (0x400d55) 

-- PC: (0x400d55) 

-- PC: (0x400d55) 

-- PC: (0x400d55) 

-- PC: (0x400d55) 

-- Tick (68555000) -- ISN: (77900) : S -> (0x1) at (0x7fffffffecc8) -- Size = (8)-- PC: (0x400cfc) 

 -- vaddr (0x7fffffffecc8) -- paddr (0xc5cc8) 

-- PC: (0x400d55) 

-- PC: (0x400d55) 

-- PC: (0x400d55) 

-- PC: (0x400d55) 

-- PC: (0x400d5b) 

-- PC: (0x400d5b) 

-- PC: (0x400d5b) 

-- PC: (0x400d5b) 

-- PC: (0x400d5b) 

-- PC: (0x400d5b) 

-- PC: (0x400d5b) 

-- PC: (0x400d5b) 

-- PC: (0x400d5b) 

-- PC: (0x400d5b) 

-- PC: (0x400d61) 

-- PC: (0x400d61) 

-- PC: (0x400d61) 

-- PC: (0x400d61) 

-- PC: (0x400d61) 

-- PC: (0x400d61) 

-- PC: (0x400d61) 

-- PC: (0x400d61) 

-- PC: (0x400d67) 

-- PC: (0x400d67) 

-- PC: (0x400d67) 

-- PC: (0x400d67) 

-- PC: (0x400d67) 

-- PC: (0x400d67) 

-- PC: (0x400d67) 

-- PC: (0x400d67) 

-- PC: (0x400d6c) 

-- PC: (0x400d6c) 

-- PC: (0x400d6c) 

-- PC: (0x400d6c) 

-- PC: (0x400d6c) 

-- PC: (0x400d6c) 

-- PC: (0x400d6c) 

-- PC: (0x400d6c) 

-- PC: (0x400d71) 

-- PC: (0x400d71) 

-- PC: (0x400d71) 

-- PC: (0x400d71) 

-- PC: (0x400d71) 

-- PC: (0x400d71) 

-- PC: (0x400d71) 

-- PC: (0x400d71) 

-- PC: (0x400d07) 

-- PC: (0x400cfc) 

-- PC: (0x400b4d) 

-- PC: (0x400b4d) 

-- PC: (0x400b4d) 

-- PC: (0x400b4d) 

-- Sqsh -> ISN (77902)

-- PC: (0x400b4d) 

-- PC: (0x400b4d) 

-- ReadReq [b40:b7f] IF Hit -- Blk -> state: 5 (S) valid: 1 writable: 0 readable: 1 dirty: 0 | tag: 0x2 set: 0xd way: 0 Latency: 2 

-- PC: (0x400b4d) 

-- PC: (0x400b4d) 

-- PC: (0x400b4d) 

-- PC: (0x400b4d) 

-- PC: (0x400b4d) 

-- PC: (0x400b4d) 

-- PC: (0x400b4d) 

-- PC: (0x400b4e) 

-- PC: (0x400b4e) 

-- PC: (0x400b4e) 

-- PC: (0x400b4e) 

-- PC: (0x400b4e) 

-- PC: (0x400b4e) 

-- PC: (0x400b4e) 

-- PC: (0x400b4e) 

-- PC: (0x400b51) 

-- PC: (0x400b51) 

-- PC: (0x400b51) 

-- PC: (0x400b51) 

-- PC: (0x400b51) 

-- PC: (0x400b51) 

-- PC: (0x400b54) 

-- PC: (0x400b54) 

-- PC: (0x400b54) 

-- PC: (0x400b54) 

-- PC: (0x400b54) 

-- PC: (0x400b54) 

-- PC: (0x400b57) 

-- PC: (0x400b57) 

-- PC: (0x400b57) 

-- PC: (0x400b57) 

-- PC: (0x400b57) 

-- PC: (0x400b57) 

-- PC: (0x400b57) 

-- PC: (0x400b57) 

-- PC: (0x400b57) 

-- PC: (0x400b57) 

-- PC: (0x400b5d) 

-- PC: (0x400b5d) 

-- PC: (0x400b5d) 

-- PC: (0x400b5d) 

-- PC: (0x400b5d) 

-- PC: (0x400b5d) 

-- PC: (0x400b5d) 

-- PC: (0x400b5d) 

-- PC: (0x400b5d) 

-- PC: (0x400b5d) 

-- PC: (0x400b5d) 

-- PC: (0x400b5d) 

-- PC: (0x400b60) 

-- PC: (0x400b60) 

-- PC: (0x400b60) 

-- PC: (0x400b60) 

-- PC: (0x400b60) 

-- PC: (0x400b60) 

-- PC: (0x400b60) 

-- PC: (0x400b60) 

-- PC: (0x400b60) 

-- PC: (0x400b60) 

-- PC: (0x400b60) 

-- PC: (0x400b62) 

-- PC: (0x400b60) 

-- PC: (0x400b62) 

-- PC: (0x400b60) 

-- PC: (0x400b62) 

-- PC: (0x400b62) 

-- PC: (0x400b62) 

-- PC: (0x400b62) 

-- PC: (0x400b62) 

-- PC: (0x400b62) 

-- PC: (0x400b65) 

-- PC: (0x400b65) 

-- PC: (0x400b65) 

-- PC: (0x400b65) 

-- PC: (0x400b65) 

-- PC: (0x400b65) 

-- PC: (0x400b67) 

-- PC: (0x400b67) 

-- PC: (0x400b67) 

-- PC: (0x400b67) 

-- PC: (0x400b67) 

-- PC: (0x400b67) 

-- PC: (0x400b67) 

-- PC: (0x400b67) 

-- PC: (0x400b6f) 

-- PC: (0x400b6f) 

-- PC: (0x400b6f) 

-- PC: (0x400b6f) 

-- PC: (0x400b6f) 

-- PC: (0x400b6f) 

-- PC: (0x400b6f) 

-- PC: (0x400b6f) 

-- PC: (0x400b6f) 

-- PC: (0x400b6f) 

-- PC: (0x400b6f) 

-- PC: (0x400b6f) 

-- PC: (0x400b6f) 

-- PC: (0x400b6f) 

-- PC: (0x400b76) 

-- PC: (0x400b76) 

-- PC: (0x400b76) 

-- PC: (0x400b76) 

-- PC: (0x400b76) 

-- PC: (0x400b76) 

-- PC: (0x400b76) 

-- PC: (0x400b76) 

-- PC: (0x400b79) 

-- PC: (0x400b79) 

-- PC: (0x400b79) 

-- PC: (0x400b79) 

-- PC: (0x400b79) 

-- PC: (0x400b79) 

-- PC: (0x400b79) 

-- PC: (0x400b79) 

-- PC: (0x400b79) 

-- PC: (0x400b79) 

-- PC: (0x400b79) 

-- PC: (0x400b79) 

-- PC: (0x400b7d) 

-- PC: (0x400b7d) 

-- PC: (0x400b7d) 

-- PC: (0x400b7d) 

-- PC: (0x400b7d) 

-- PC: (0x400b7d) 

-- PC: (0x400b80) 

-- PC: (0x400b80) 

-- PC: (0x400b80) 

-- PC: (0x400b80) 

-- PC: (0x400b80) 

-- PC: (0x400b80) 

-- ReadReq [b80:bbf] IF Hit -- Blk -> state: 5 (S) valid: 1 writable: 0 readable: 1 dirty: 0 | tag: 0x2 set: 0xe way: 0 Latency: 2 

-- PC: (0x400b80) 

-- PC: (0x400b80) 

-- PC: (0x400b80) 

-- PC: (0x400b80) 

-- PC: (0x400b80) 

-- PC: (0x400b80) 

-- PC: (0x400b87) 

-- PC: (0x400b87) 

-- PC: (0x400b87) 

-- PC: (0x400b87) 

-- PC: (0x400b87) 

-- PC: (0x400b87) 

-- PC: (0x400b87) 

-- PC: (0x400b87) 

-- PC: (0x400b87) 

-- PC: (0x400b87) 

-- PC: (0x400b8b) 

-- PC: (0x400b8b) 

-- PC: (0x400b8b) 

-- PC: (0x400b8b) 

-- PC: (0x400b8b) 

-- PC: (0x400b8b) 

-- PC: (0x400b8b) 

-- PC: (0x400b8b) 

-- PC: (0x400b8b) 

-- PC: (0x400b8b) 

-- PC: (0x400b91) 

-- PC: (0x400b91) 

-- PC: (0x400b91) 

-- PC: (0x400b91) 

-- PC: (0x400b91) 

-- PC: (0x400b91) 

-- PC: (0x400b92) 

-- PC: (0x400b92) 

-- PC: (0x400b92) 

-- PC: (0x400b92) 

-- PC: (0x400b92) 

-- PC: (0x400b92) 

-- PC: (0x400b92) 

-- PC: (0x400b92) 

-- PC: (0x400b92) 

-- PC: (0x400b92) 

-- PC: (0x400b92) 

-- PC: (0x400b92) 

-- PC: (0x400b92) 

-- PC: (0x400b92) 

-- PC: (0x400b93) 

-- PC: (0x400b93) 

-- PC: (0x400b93) 

-- PC: (0x400b93) 

-- PC: (0x400b93) 

-- PC: (0x400b93) 

-- PC: (0x400b93) 

-- PC: (0x400b93) 

-- PC: (0x400b93) 

-- PC: (0x400b93) 

-- PC: (0x400b93) 

-- PC: (0x400d01) 

-- PC: (0x400b93) 

-- PC: (0x400d01) 

-- PC: (0x400d01) 

-- PC: (0x400d01) 

-- PC: (0x400d01) 

-- PC: (0x400d01) 

-- ReadReq [d00:d3f] IF Hit -- Blk -> state: 5 (S) valid: 1 writable: 0 readable: 1 dirty: 0 | tag: 0x3 set: 0x4 way: 0 Latency: 2 

-- PC: (0x400d01) 

-- PC: (0x400d01) 

-- PC: (0x400d01) 

-- PC: (0x400d01) 

-- PC: (0x400d01) 

-- PC: (0x400d04) 

-- PC: (0x400d04) 

-- PC: (0x400d04) 

-- PC: (0x400d04) 

-- PC: (0x400d04) 

-- PC: (0x400d04) 

-- PC: (0x400d04) 

-- PC: (0x400d04) 

-- PC: (0x400d07) 

-- PC: (0x400d07) 

-- PC: (0x400d07) 

-- PC: (0x400d07) 

-- PC: (0x400d07) 

-- PC: (0x400d07) 

-- PC: (0x400d07) 

-- PC: (0x400d07) 

-- PC: (0x400d0a) 

-- PC: (0x400d0a) 

-- PC: (0x400d0a) 

-- PC: (0x400d0a) 

-- PC: (0x400d0a) 

-- PC: (0x400d0a) 

-- PC: (0x400d0d) 

-- PC: (0x400d0d) 

-- PC: (0x400d0d) 

-- PC: (0x400d0d) 

-- PC: (0x400d0d) 

-- PC: (0x400d0d) 

-- PC: (0x400d0d) 

-- PC: (0x400d0d) 

-- PC: (0x400d10) 

-- PC: (0x400d10) 

-- PC: (0x400d10) 

-- PC: (0x400d10) 

-- PC: (0x400d10) 

-- PC: (0x400d10) 

-- PC: (0x400d10) 

-- PC: (0x400d10) 

-- PC: (0x400d10) 

-- PC: (0x400d10) 

-- PC: (0x400d10) 

-- PC: (0x400d10) 

-- PC: (0x400d10) 

-- PC: (0x400d10) 

-- PC: (0x400d10) 

-- PC: (0x400d12) 

-- PC: (0x400d10) 

-- PC: (0x400d12) 

-- PC: (0x400d10) 

-- PC: (0x400d12) 

-- PC: (0x400d12) 

-- PC: (0x400d12) 

-- PC: (0x400d12) 

-- PC: (0x400d12) 

-- PC: (0x400d12) 

-- PC: (0x400d15) 

-- PC: (0x400d15) 

-- PC: (0x400d15) 

-- PC: (0x400d15) 

-- PC: (0x400d15) 

-- PC: (0x400d15) 

-- PC: (0x400d18) 

-- PC: (0x400d18) 

-- PC: (0x400d18) 

-- PC: (0x400d18) 

-- PC: (0x400d18) 

-- PC: (0x400d18) 

-- PC: (0x400d18) 

-- PC: (0x400d1f) 

-- PC: (0x400d1f) 

-- PC: (0x400d1f) 

-- PC: (0x400d1f) 

-- PC: (0x400d1f) 

-- PC: (0x400d1f) 

-- PC: (0x400d1f) 

-- PC: (0x400d1f) 

-- PC: (0x400d1f) 

-- PC: (0x400d1f) 

-- PC: (0x400d1f) 

-- PC: (0x400d1f) 

-- PC: (0x400d1f) 

-- PC: (0x400d1f) 

-- PC: (0x400d1f) 

-- PC: (0x400d1f) 

-- PC: (0x400d1f) 

-- PC: (0x400d1f) 

-- PC: (0x400d1f) 

-- PC: (0x400d1f) 

-- PC: (0x400d1f) 

-- PC: (0x400d1f) 

-- PC: (0x400d24) 

-- PC: (0x400d1f) 

-- PC: (0x400d24) 

-- PC: (0x400d1f) 

-- PC: (0x400d24) 

-- PC: (0x400d24) 

-- PC: (0x400d24) 

-- PC: (0x400d24) 

-- PC: (0x400d24) 

-- PC: (0x400d24) 

-- PC: (0x400d24) 

-- PC: (0x400d24) 

-- PC: (0x400d24) 

-- PC: (0x400d24) 

-- PC: (0x400d24) 

-- PC: (0x400d24) 

-- PC: (0x400d24) 

-- PC: (0x400d24) 

-- PC: (0x400d24) 

-- PC: (0x400d24) 

-- PC: (0x400d24) 

-- PC: (0x400d24) 

-- PC: (0x400d24) 

-- PC: (0x400d24) 

-- PC: (0x400d24) 

-- PC: (0x400d24) 

-- PC: (0x400d24) 

-- PC: (0x400d24) 

-- PC: (0x400d24) 

-- PC: (0x400d24) 

-- PC: (0x400d24) 

-- PC: (0x400d24) 

-- PC: (0x400d24) 

-- PC: (0x400d24) 

-- PC: (0x400d24) 

-- PC: (0x400d24) 

-- PC: (0x400d24) 

-- PC: (0x400d24) 

-- PC: (0x400d24) 

-- PC: (0x400d24) 

-- PC: (0x400d24) 

-- PC: (0x400d24) 

-- PC: (0x400d24) 

-- PC: (0x400d24) 

-- PC: (0x400d24) 

-- PC: (0x400d24) 

-- PC: (0x400d24) 

-- PC: (0x400d24) 

-- PC: (0x400d24) 

-- PC: (0x400d24) 

-- PC: (0x400d24) 

-- PC: (0x400d24) 

-- PC: (0x400d24) 

-- PC: (0x400d24) 

-- PC: (0x400d24) 

-- PC: (0x400d24) 

-- PC: (0x400d24) 

-- PC: (0x400d24) 

-- PC: (0x400d24) 

-- PC: (0x400d24) 

-- PC: (0x400d24) 

-- PC: (0x400d24) 

-- PC: (0x400d24) 

-- PC: (0x400d24) 

-- PC: (0x400d24) 

-- PC: (0x400d24) 

-- PC: (0x400d24) 

-- PC: (0x400d24) 

-- PC: (0x400d24) 

-- PC: (0x400d24) 

-- PC: (0x400d24) 

-- PC: (0x400d24) 

-- PC: (0x400d24) 

-- PC: (0x400d24) 

-- PC: (0x400d24) 

-- PC: (0x400d24) 

-- PC: (0x400d24) 

-- PC: (0x400d24) 

-- PC: (0x400d24) 

-- PC: (0x400d24) 

-- PC: (0x400d24) 

-- PC: (0x400d24) 

-- PC: (0x400d24) 

-- PC: (0x400d24) 

-- PC: (0x400d24) 

-- PC: (0x400d24) 

-- PC: (0x400d24) 

-- PC: (0x400d24) 

-- PC: (0x400d24) 

-- PC: (0x400d24) 

-- PC: (0x400d24) 

-- PC: (0x400d24) 

-- PC: (0x400d24) 

-- PC: (0x400d24) 

-- PC: (0x400d24) 

-- PC: (0x400d24) 

-- PC: (0x400d24) 

-- PC: (0x400d24) 

-- PC: (0x400d24) 

-- PC: (0x400d24) 

-- PC: (0x400d24) 

-- PC: (0x400d24) 

-- PC: (0x400d24) 

-- PC: (0x400d24) 

-- PC: (0x400d24) 

-- PC: (0x400d24) 

-- PC: (0x400d24) 

-- PC: (0x400d24) 

-- PC: (0x400d24) 

-- PC: (0x400d24) 

-- PC: (0x400d24) 

-- PC: (0x400d24) 

-- PC: (0x400d24) 

-- PC: (0x400d24) 

-- PC: (0x400d24) 

-- PC: (0x400d24) 

-- PC: (0x400d24) 

-- PC: (0x400d24) 

-- PC: (0x400d24) 

-- PC: (0x400d24) 

-- PC: (0x400d24) 

-- PC: (0x400d24) 

-- PC: (0x400d24) 

-- PC: (0x400d24) 

-- PC: (0x400d24) 

-- PC: (0x400d24) 

-- PC: (0x400d24) 

-- PC: (0x400d24) 

-- PC: (0x400d24) 

-- PC: (0x400d24) 

-- PC: (0x400d24) 

-- PC: (0x400d24) 

-- PC: (0x400d24) 

-- PC: (0x400d24) 

-- PC: (0x400d24) 

-- PC: (0x400d24) 

-- PC: (0x400d24) 

-- PC: (0x400d24) 

-- PC: (0x400d24) 

-- PC: (0x400d24) 

-- PC: (0x400d24) 

-- PC: (0x400d24) 

-- PC: (0x400d24) 

-- PC: (0x400d24) 

-- PC: (0x400d24) 

-- PC: (0x400d24) 

-- PC: (0x400d24) 

-- PC: (0x400d24) 

-- PC: (0x400d24) 

-- PC: (0x400d24) 

-- PC: (0x400d24) 

-- PC: (0x400d24) 

-- PC: (0x400d24) 

-- PC: (0x400d24) 

-- PC: (0x400d24) 

-- PC: (0x400d24) 

-- PC: (0x400d24) 

-- PC: (0x400d24) 

-- PC: (0x400d24) 

-- PC: (0x400d24) 

-- PC: (0x400d24) 

-- PC: (0x400d24) 

-- PC: (0x400d24) 

-- PC: (0x400d24) 

-- PC: (0x400d24) 

-- PC: (0x400d24) 

-- PC: (0x400d24) 

-- PC: (0x400d24) 

-- PC: (0x400d24) 

-- PC: (0x400d24) 

-- PC: (0x400d24) 

-- PC: (0x400d24) 

-- PC: (0x400d24) 

-- PC: (0x400d24) 

-- PC: (0x400d24) 

-- PC: (0x400d24) 

-- PC: (0x400d24) 

-- PC: (0x400d24) 

-- PC: (0x400d24) 

-- PC: (0x400d24) 

-- PC: (0x400d24) 

-- PC: (0x400d24) 

-- PC: (0x400d24) 

-- PC: (0x400d24) 

-- PC: (0x400d24) 

-- PC: (0x400d24) 

-- PC: (0x400d24) 

-- PC: (0x400d24) 

-- PC: (0x400d24) 

-- PC: (0x400d24) 

-- PC: (0x400d24) 

-- PC: (0x400d24) 

-- PC: (0x400d24) 

-- PC: (0x400d24) 

-- PC: (0x400d24) 

-- PC: (0x400d24) 

-- PC: (0x400d24) 

-- PC: (0x400d24) 

-- PC: (0x400d24) 

-- PC: (0x400d24) 

-- PC: (0x400d24) 

-- PC: (0x400d24) 

-- PC: (0x400d24) 

-- PC: (0x400d24) 

-- PC: (0x400d24) 

-- PC: (0x400d24) 

-- PC: (0x400d24) 

-- PC: (0x400d24) 

-- PC: (0x400d24) 

-- PC: (0x400d24) 

-- PC: (0x400d24) 

-- PC: (0x400d24) 

-- PC: (0x400d24) 

-- PC: (0x400d24) 

-- PC: (0x400d24) 

-- PC: (0x400d24) 

-- PC: (0x400d24) 

-- PC: (0x400d24) 

-- PC: (0x400d24) 

-- PC: (0x400d24) 

-- PC: (0x400d24) 

-- PC: (0x400d24) 

-- PC: (0x400d24) 

-- PC: (0x400d24) 

-- PC: (0x400d24) 

-- PC: (0x400d24) 

-- PC: (0x400d24) 

-- PC: (0x400d24) 

-- PC: (0x400d24) 

-- PC: (0x400d24) 

-- PC: (0x400d24) 

-- PC: (0x400d24) 

-- PC: (0x400d24) 

-- PC: (0x400d24) 

-- PC: (0x400d24) 

-- PC: (0x400d24) 

-- PC: (0x400d24) 

-- PC: (0x400d24) 

-- PC: (0x400d24) 

-- PC: (0x400d24) 

-- PC: (0x400d24) 

-- PC: (0x400d24) 

-- PC: (0x400d24) 

-- PC: (0x400d24) 

-- PC: (0x400d24) 

-- PC: (0x400d24) 

-- PC: (0x400d24) 

-- PC: (0x400d24) 

-- PC: (0x400d24) 

-- PC: (0x400d24) 

-- PC: (0x400d24) 

-- PC: (0x400d24) 

-- PC: (0x400d24) 

-- PC: (0x400d24) 

-- PC: (0x400d24) 

-- PC: (0x400d24) 

-- PC: (0x400d24) 

-- PC: (0x400d24) 

-- PC: (0x400d24) 

-- PC: (0x400d24) 

-- PC: (0x400d24) 

-- PC: (0x400d24) 

-- PC: (0x400d24) 

-- PC: (0x400d24) 

-- PC: (0x400d24) 

-- PC: (0x400d24) 

-- PC: (0x400d24) 

-- PC: (0x400d24) 

-- PC: (0x400d24) 

-- PC: (0x400d24) 

-- PC: (0x400d24) 

-- PC: (0x400d24) 

-- PC: (0x400d24) 

-- PC: (0x400d24) 

-- PC: (0x400d24) 

-- PC: (0x400d24) 

-- PC: (0x400d24) 

-- PC: (0x400d24) 

-- PC: (0x400d24) 

-- PC: (0x400d24) 

-- PC: (0x400d24) 

-- PC: (0x400d24) 

-- PC: (0x400d24) 

-- PC: (0x400d24) 

-- PC: (0x400d24) 

-- PC: (0x400d24) 

-- PC: (0x400d24) 

-- PC: (0x400d24) 

-- PC: (0x400d24) 

-- PC: (0x400d24) 

-- PC: (0x400d24) 

-- PC: (0x400d24) 

-- PC: (0x400d24) 

-- PC: (0x400d24) 

-- PC: (0x400d24) 

-- PC: (0x400d24) 

-- PC: (0x400d24) 

-- PC: (0x400d24) 

-- PC: (0x400d24) 

-- PC: (0x400d24) 

-- PC: (0x400d24) 

-- PC: (0x400d24) 

-- PC: (0x400d24) 

-- PC: (0x400d24) 

-- PC: (0x400d24) 

-- PC: (0x400d24) 

-- PC: (0x400d24) 

-- PC: (0x400d24) 

-- PC: (0x400d24) 

-- PC: (0x400d24) 

-- PC: (0x400d24) 

-- PC: (0x400d24) 

-- PC: (0x400d24) 

-- PC: (0x400d24) 

-- PC: (0x400d24) 

-- PC: (0x400d24) 

-- PC: (0x400d24) 

-- PC: (0x400d24) 

-- PC: (0x400d24) 

-- PC: (0x400d24) 

-- PC: (0x400d24) 

-- PC: (0x400d24) 

-- PC: (0x400d24) 

-- PC: (0x400d24) 

-- PC: (0x400d24) 

-- PC: (0x400d24) 

-- PC: (0x400d24) 

-- PC: (0x400d24) 

-- PC: (0x400d24) 

-- PC: (0x400d24) 

-- PC: (0x400d24) 

-- PC: (0x400d24) 

-- PC: (0x400d24) 

-- PC: (0x400d24) 

-- PC: (0x400d24) 

-- PC: (0x400d24) 

-- PC: (0x400d24) 

-- PC: (0x400d24) 

-- PC: (0x400d24) 

-- PC: (0x400d24) 

-- PC: (0x400d24) 

-- PC: (0x400d24) 

-- PC: (0x400d24) 

-- PC: (0x400d24) 

-- PC: (0x400d24) 

-- PC: (0x400d24) 

-- PC: (0x400d24) 

-- PC: (0x400d24) 

-- PC: (0x400d24) 

-- PC: (0x400b8b) 

-- PC: (0x400d24) 

-- PC: (0x400d24) 

-- PC: (0x400d24) 

-- Tick (68619500) -- ISN: (77767) : S -> (0x0) at (0x6bb330) -- Size = (1)-- PC: (0x400b8b) 

 -- vaddr (0x6bb330) -- paddr (0xbb330) 

-- PC: (0x400b87) 

-- PC: (0x400b87) 

-- PC: (0x400d24) 

-- PC: (0x400d24) 

-- PC: (0x400d24) 

-- PC: (0x400b87) 

-- PC: (0x400b87) 

-- PC: (0x400b8b) 

-- PC: (0x400b8b) 

-- PC: (0x400b8b) 

-- PC: (0x400b8b) 

-- PC: (0x400d24) 

-- PC: (0x400d24) 

-- PC: (0x400d24) 

-- PC: (0x400b8b) 

-- PC: (0x400b8b) 

-- PC: (0x400b91) 

-- PC: (0x400b91) 

-- PC: (0x400b91) 

-- PC: (0x400b91) 

-- PC: (0x400b92) 

-- PC: (0x400b92) 

-- PC: (0x400b92) 

-- PC: (0x400b92) 

-- PC: (0x400b92) 

-- PC: (0x400b92) 

-- PC: (0x400b92) 

-- PC: (0x400b92) 

-- PC: (0x400b93) 

-- PC: (0x400b93) 

-- PC: (0x400b93) 

-- PC: (0x400b93) 

-- PC: (0x400b93) 

-- PC: (0x400b93) 

-- PC: (0x400b93) 

-- PC: (0x400b93) 

-- PC: (0x400d01) 

-- PC: (0x400d01) 

-- PC: (0x400d24) 

-- PC: (0x400d24) 

-- PC: (0x400d24) 

-- PC: (0x400d01) 

-- PC: (0x400d01) 

-- PC: (0x400d04) 

-- PC: (0x400d04) 

-- PC: (0x400d04) 

-- PC: (0x400d04) 

-- PC: (0x400d04) 

-- PC: (0x400d04) 

-- PC: (0x400d07) 

-- PC: (0x400d07) 

-- PC: (0x400d07) 

-- PC: (0x400d07) 

-- PC: (0x400d0a) 

-- PC: (0x400d0a) 

-- PC: (0x400d0a) 

-- PC: (0x400d0a) 

-- PC: (0x400d0d) 

-- PC: (0x400d0d) 

-- PC: (0x400d0d) 

-- PC: (0x400d0d) 

-- PC: (0x400d0d) 

-- PC: (0x400d0d) 

-- PC: (0x400d10) 

-- PC: (0x400d10) 

-- PC: (0x400d10) 

-- PC: (0x400d10) 

-- PC: (0x400d24) 

-- PC: (0x400d24) 

-- PC: (0x400d24) 

-- WriteReq [bb330:bb330] Hit -- Blk -> state: f (M) valid: 1 writable: 1 readable: 1 dirty: 1 | tag: 0x17 set: 0xcc way: 0 Latency: 2 

-- PC: (0x400d10) 

-- PC: (0x400d10) 

-- PC: (0x400d10) 

-- PC: (0x400d10) 

-- PC: (0x400cf2) 

-- PC: (0x400cf2) 

-- PC: (0x400cf2) 

-- PC: (0x400cf2) 

-- PC: (0x400cf5) 

-- PC: (0x400cf5) 

-- PC: (0x400cf5) 

-- PC: (0x400cf5) 

-- PC: (0x400cfa) 

-- PC: (0x400cfa) 

-- PC: (0x400cfa) 

-- PC: (0x400cfa) 

-- PC: (0x400cfc) 

-- PC: (0x400cfc) 

-- PC: (0x400cfc) 

-- PC: (0x400cfc) 

-- PC: (0x400cfc) 

-- PC: (0x400cfc) 

-- PC: (0x400cfc) 

-- PC: (0x400cfc) 

-- PC: (0x400d24) 

-- PC: (0x400d24) 

-- PC: (0x400d24) 

-- PC: (0x400cfc) 

-- PC: (0x400cfc) 

-- PC: (0x400cfc) 

-- PC: (0x400cfc) 

-- PC: (0x400b4d) 

-- PC: (0x400b4d) 

-- PC: (0x400d24) 

-- PC: (0x400d24) 

-- PC: (0x400d24) 

-- WriteReq [c5cd8:c5cdb] Hit -- Blk -> state: f (M) valid: 1 writable: 1 readable: 1 dirty: 1 | tag: 0x18 set: 0x173 way: 0 Latency: 2 

-- PC: (0x400d24) 

-- PC: (0x400d24) 

-- PC: (0x400d24) 

-- PC: (0x400d24) 

-- PC: (0x400d24) 

-- PC: (0x400d24) 

-- WriteReq [c5cc8:c5ccf] Hit -- Blk -> state: f (M) valid: 1 writable: 1 readable: 1 dirty: 1 | tag: 0x18 set: 0x173 way: 0 Latency: 2 

-- PC: (0x400d24) 

-- PC: (0x400d24) 

-- PC: (0x400d24) 

-- PC: (0x400d24) 

-- PC: (0x400d24) 

-- PC: (0x400d24) 

-- PC: (0x400d24) 

-- PC: (0x400d24) 

-- PC: (0x400d24) 

-- PC: (0x400d24) 

-- PC: (0x400d24) 

-- PC: (0x400d24) 

-- PC: (0x400d24) 

-- PC: (0x400d24) 

-- PC: (0x400d24) 

-- PC: (0x400b4d) 

-- PC: (0x400b4d) 

-- PC: (0x400b51) 

-- PC: (0x400b51) 

-- PC: (0x400b54) 

-- PC: (0x400b54) 

-- PC: (0x400b57) 

-- PC: (0x400b5d) 

-- PC: (0x400b4d) 

-- PC: (0x400d24) 

-- PC: (0x400d24) 

-- PC: (0x400d24) 

-- Tick (68626500) -- ISN: (77950) : S -> (0x10) at (0x7fffffffecc0) -- Size = (8)-- PC: (0x400b4d) 

 -- vaddr (0x7fffffffecc0) -- paddr (0xc5cc0) 

-- PC: (0x400b57) 

-- PC: (0x400d24) 

-- PC: (0x400d24) 

-- PC: (0x400d24) 

-- PC: (0x400d24) 

-- PC: (0x400d24) 

-- PC: (0x400d24) 

-- PC: (0x400d28) 

-- PC: (0x400d28) 

-- PC: (0x400d28) 

-- PC: (0x400d28) 

-- PC: (0x400d28) 

-- PC: (0x400d2c) 

-- PC: (0x400d2c) 

-- PC: (0x400d2c) 

-- PC: (0x400d2c) 

-- PC: (0x400d2c) 

-- PC: (0x400d2c) 

-- PC: (0x400d30) 

-- PC: (0x400d30) 

-- PC: (0x400d30) 

-- PC: (0x400d30) 

-- PC: (0x400d30) 

-- PC: (0x400d30) 

-- PC: (0x400d30) 

-- PC: (0x400d33) 

-- PC: (0x400d33) 

-- PC: (0x400d33) 

-- PC: (0x400d33) 

-- PC: (0x400d33) 

-- PC: (0x400d33) 

-- PC: (0x400d38) 

-- PC: (0x400d38) 

-- PC: (0x400d38) 

-- PC: (0x400d38) 

-- PC: (0x400d38) 

-- PC: (0x400d38) 

-- PC: (0x400d38) 

-- PC: (0x400d38) 

-- PC: (0x400d38) 

-- PC: (0x400b62) 

-- Tick (68627000) -- ISN: (77956) : L from (0x6b90f0) -- of Size = (4)-- PC: (0x400b57) 

 -- vaddr (0x6b90f0) -- paddr (0xb90f0) 

-- ReadReq [b90f0:b90f3] Hit -- Blk -> state: f (M) valid: 1 writable: 1 readable: 1 dirty: 1 | tag: 0x17 set: 0x43 way: 0 Latency: 2 

-- PC: (0x400b51) 

-- PC: (0x400b54) 

-- PC: (0x400b5d) 

-- PC: (0x400b62) 

-- PC: (0x400d38) 

-- PC: (0x400d38) 

-- PC: (0x400d38) 

-- PC: (0x400d38) 

-- PC: (0x400d38) 

-- PC: (0x400d38) 

-- PC: (0x400d38) 

-- PC: (0x400d38) 

-- PC: (0x400d38) 

-- PC: (0x400d38) 

-- PC: (0x400d3d) 

-- PC: (0x400d38) 

-- PC: (0x400d3d) 

-- PC: (0x400d38) 

-- PC: (0x400d3d) 

-- PC: (0x400d3d) 

-- PC: (0x400d3d) 

-- PC: (0x400d3d) 

-- PC: (0x400d3d) 

-- PC: (0x400d3d) 

-- PC: (0x400d40) 

-- PC: (0x400d40) 

-- PC: (0x400d40) 

-- PC: (0x400d40) 

-- PC: (0x400d40) 

-- PC: (0x400d40) 

-- ReadReq [d40:d7f] IF Hit -- Blk -> state: 5 (S) valid: 1 writable: 0 readable: 1 dirty: 0 | tag: 0x3 set: 0x5 way: 0 Latency: 2 

-- PC: (0x400b76) 

-- PC: (0x400b79) 

-- Tick (68627500) -- ISN: (77953) : S -> (0x1) at (0x7fffffffecbc) -- Size = (4)-- PC: (0x400b51) 

 -- vaddr (0x7fffffffecbc) -- paddr (0xc5cbc) 

-- Tick (68627500) -- ISN: (77954) : S -> (0x0) at (0x7fffffffecb8) -- Size = (4)-- PC: (0x400b54) 

 -- vaddr (0x7fffffffecb8) -- paddr (0xc5cb8) 

-- Tick (68627500) -- ISN: (77957) : L from (0x7fffffffecbc) -- of Size = (4)-- PC: (0x400b5d) 

 -- vaddr (0x7fffffffecbc) -- paddr (0xc5cbc) 

-- Tick (68627500) -- ISN: (77962) : L from (0x7fffffffecbc) -- of Size = (4)-- PC: (0x400b62) 

 -- vaddr (0x7fffffffecbc) -- paddr (0xc5cbc) 

-- PC: (0x400b79) 

-- PC: (0x400b4d) 

-- PC: (0x400b4d) 

-- PC: (0x400b4d) 

-- PC: (0x400b4d) 

-- PC: (0x400b4e) 

-- PC: (0x400b4e) 

-- Tick (68628000) -- ISN: (77968) : L from (0x7fffffffecb8) -- of Size = (4)-- PC: (0x400b79) 

 -- vaddr (0x7fffffffecb8) -- paddr (0xc5cb8) 

-- PC: (0x400b4e) 

-- PC: (0x400b4e) 

-- PC: (0x400b51) 

-- PC: (0x400b51) 

-- PC: (0x400d40) 

-- PC: (0x400d40) 

-- PC: (0x400d40) 

-- PC: (0x400d40) 

-- PC: (0x400d43) 

-- PC: (0x400d43) 

-- PC: (0x400d43) 

-- PC: (0x400d43) 

-- PC: (0x400d43) 

-- PC: (0x400d43) 

-- PC: (0x400d43) 

-- PC: (0x400d43) 

-- PC: (0x400d43) 

-- PC: (0x400d43) 

-- PC: (0x400d49) 

-- PC: (0x400d49) 

-- PC: (0x400d49) 

-- PC: (0x400d49) 

-- PC: (0x400d49) 

-- PC: (0x400d49) 

-- PC: (0x400d49) 

-- PC: (0x400d49) 

-- PC: (0x400d4f) 

-- PC: (0x400d4f) 

-- PC: (0x400d4f) 

-- PC: (0x400d4f) 

-- PC: (0x400d4f) 

-- PC: (0x400d4f) 

-- PC: (0x400d4f) 

-- PC: (0x400d4f) 

-- PC: (0x400d4f) 

-- PC: (0x400d4f) 

-- PC: (0x400d55) 

-- PC: (0x400d55) 

-- PC: (0x400d55) 

-- PC: (0x400d55) 

-- PC: (0x400d55) 

-- PC: (0x400d55) 

-- PC: (0x400d55) 

-- PC: (0x400d55) 

-- PC: (0x400d55) 

-- PC: (0x400d55) 

-- PC: (0x400b87) 

-- PC: (0x400b8b) 

-- PC: (0x400b8b) 

-- PC: (0x400b92) 

-- PC: (0x400b92) 

-- WriteReq [c5cc0:c5cc7] Hit -- Blk -> state: f (M) valid: 1 writable: 1 readable: 1 dirty: 1 | tag: 0x18 set: 0x173 way: 0 Latency: 2 

-- PC: (0x400b51) 

-- PC: (0x400b51) 

-- PC: (0x400b54) 

-- PC: (0x400b54) 

-- PC: (0x400b54) 

-- PC: (0x400b54) 

-- PC: (0x400b57) 

-- PC: (0x400b57) 

-- PC: (0x400b57) 

-- PC: (0x400b57) 

-- PC: (0x400d55) 

-- PC: (0x400d55) 

-- PC: (0x400d55) 

-- PC: (0x400d55) 

-- PC: (0x400d5b) 

-- PC: (0x400d5b) 

-- PC: (0x400d5b) 

-- PC: (0x400d5b) 

-- PC: (0x400d5b) 

-- PC: (0x400d5b) 

-- PC: (0x400d5b) 

-- PC: (0x400d5b) 

-- PC: (0x400d5b) 

-- PC: (0x400d5b) 

-- PC: (0x400d61) 

-- PC: (0x400d61) 

-- PC: (0x400d61) 

-- PC: (0x400d61) 

-- PC: (0x400d61) 

-- PC: (0x400d61) 

-- PC: (0x400d61) 

-- PC: (0x400d61) 

-- PC: (0x400d67) 

-- PC: (0x400d67) 

-- PC: (0x400d67) 

-- PC: (0x400d67) 

-- PC: (0x400d67) 

-- PC: (0x400d67) 

-- PC: (0x400d67) 

-- PC: (0x400d67) 

-- PC: (0x400d6c) 

-- PC: (0x400d6c) 

-- PC: (0x400d6c) 

-- PC: (0x400d6c) 

-- PC: (0x400d6c) 

-- PC: (0x400d6c) 

-- PC: (0x400d6c) 

-- PC: (0x400d6c) 

-- PC: (0x400d71) 

-- PC: (0x400d71) 

-- PC: (0x400d71) 

-- PC: (0x400d71) 

-- PC: (0x400d71) 

-- PC: (0x400d71) 

-- PC: (0x400d71) 

-- PC: (0x400d71) 

-- PC: (0x400b93) 

-- PC: (0x400d01) 

-- Tick (68629000) -- ISN: (77980) : L from (0x7fffffffecc0) -- of Size = (8)-- PC: (0x400b92) 

 -- vaddr (0x7fffffffecc0) -- paddr (0xc5cc0) 

-- ReadReq [c5cc0:c5cc7] Hit -- Blk -> state: f (M) valid: 1 writable: 1 readable: 1 dirty: 1 | tag: 0x18 set: 0x173 way: 0 Latency: 2 

-- PC: (0x400b76) 

-- PC: (0x400b57) 

-- PC: (0x400b57) 

-- PC: (0x400b5d) 

-- PC: (0x400b5d) 

-- PC: (0x400b5d) 

-- PC: (0x400b5d) 

-- PC: (0x400d71) 

-- PC: (0x400d71) 

-- PC: (0x400d71) 

-- PC: (0x400d71) 

-- PC: (0x400d71) 

-- PC: (0x400d71) 

-- PC: (0x400d71) 

-- PC: (0x400d71) 

-- PC: (0x400d71) 

-- PC: (0x400d71) 

-- PC: (0x400d71) 

-- PC: (0x400d71) 

-- PC: (0x400d76) 

-- PC: (0x400d71) 

-- PC: (0x400d76) 

-- PC: (0x400d71) 

-- PC: (0x400d76) 

-- PC: (0x400d76) 

-- PC: (0x400d76) 

-- PC: (0x400d76) 

-- PC: (0x400d76) 

-- PC: (0x400d76) 

-- PC: (0x400d76) 

-- PC: (0x400d76) 

-- PC: (0x400d79) 

-- PC: (0x400d79) 

-- PC: (0x400d79) 

-- PC: (0x400d79) 

-- PC: (0x400d79) 

-- PC: (0x400d79) 

-- PC: (0x400d7c) 

-- PC: (0x400d7c) 

-- PC: (0x400d7c) 

-- PC: (0x400d7c) 

-- PC: (0x400d7c) 

-- PC: (0x400d7c) 

-- PC: (0x400d7c) 

-- PC: (0x400d7c) 

-- PC: (0x400d7c) 

-- ReadReq [d80:dbf] IF Hit -- Blk -> state: 5 (S) valid: 1 writable: 0 readable: 1 dirty: 0 | tag: 0x3 set: 0x6 way: 0 Latency: 2 

-- PC: (0x400d07) 

-- PC: (0x400d07) 

-- PC: (0x400d0a) 

-- Tick (68629500) -- ISN: (77967) : L from (0x6bc444) -- of Size = (4)-- PC: (0x400b76) 

 -- vaddr (0x6bc444) -- paddr (0xbc444) 

-- ReadReq [bc444:bc447] Hit -- Blk -> state: 7 (E) valid: 1 writable: 1 readable: 1 dirty: 0 | tag: 0x17 set: 0x111 way: 0 Latency: 2 

-- PC: (0x400b93) 

-- WriteReq [c5cbc:c5cbf] Hit -- Blk -> state: f (M) valid: 1 writable: 1 readable: 1 dirty: 1 | tag: 0x18 set: 0x172 way: 0 Latency: 2 

-- PC: (0x400b5d) 

-- PC: (0x400b5d) 

-- PC: (0x400b60) 

-- PC: (0x400b60) 

-- PC: (0x400b60) 

-- PC: (0x400b60) 

-- PC: (0x400b60) 

-- PC: (0x400b60) 

-- Tick (68630000) -- ISN: (77983) : L from (0x7fffffffecc8) -- of Size = (8)-- PC: (0x400b93) 

 -- vaddr (0x7fffffffecc8) -- paddr (0xc5cc8) 

-- ReadReq [c5cc8:c5ccf] Hit -- Blk -> state: f (M) valid: 1 writable: 1 readable: 1 dirty: 1 | tag: 0x18 set: 0x173 way: 0 Latency: 2 

-- PC: (0x400b60) 

-- PC: (0x400b60) 

-- PC: (0x400b62) 

-- PC: (0x400b62) 

-- PC: (0x400b62) 

-- PC: (0x400b62) 

-- PC: (0x400b65) 

-- PC: (0x400b65) 

-- PC: (0x400b65) 

-- PC: (0x400b65) 

-- PC: (0x400b67) 

-- PC: (0x400b67) 

-- PC: (0x400b67) 

-- PC: (0x400b67) 

-- PC: (0x400b6f) 

-- PC: (0x400b6f) 

-- PC: (0x400b6f) 

-- PC: (0x400b6f) 

-- PC: (0x400b6f) 

-- PC: (0x400b6f) 

-- PC: (0x400b76) 

-- PC: (0x400b76) 

-- PC: (0x400d7c) 

-- PC: (0x400d7c) 

-- PC: (0x400d7c) 

-- PC: (0x400d7c) 

-- PC: (0x400d81) 

-- PC: (0x400d81) 

-- PC: (0x400d81) 

-- PC: (0x400d81) 

-- PC: (0x400d81) 

-- PC: (0x400d81) 

-- PC: (0x400d81) 

-- PC: (0x400d81) 

-- PC: (0x400d81) 

-- PC: (0x400d81) 

-- PC: (0x400d81) 

-- PC: (0x400d81) 

-- PC: (0x400d81) 

-- PC: (0x400d81) 

-- PC: (0x400d81) 

-- PC: (0x400d81) 

-- PC: (0x400d86) 

-- PC: (0x400d81) 

-- PC: (0x400d86) 

-- PC: (0x400d81) 

-- PC: (0x400d86) 

-- PC: (0x400d86) 

-- PC: (0x400d86) 

-- PC: (0x400d86) 

-- PC: (0x400d86) 

-- PC: (0x400d86) 

-- PC: (0x400d86) 

-- PC: (0x400d86) 

-- PC: (0x400d89) 

-- PC: (0x400d89) 

-- PC: (0x400d89) 

-- PC: (0x400d89) 

-- PC: (0x400d89) 

-- PC: (0x400d89) 

-- PC: (0x400d8c) 

-- PC: (0x400d8c) 

-- PC: (0x400d8c) 

-- PC: (0x400d01) 

-- PC: (0x400d8c) 

-- PC: (0x400d8c) 

-- PC: (0x400d8c) 

-- PC: (0x400d8c) 

-- PC: (0x400d8c) 

-- PC: (0x400d8c) 

-- PC: (0x400d8c) 

-- PC: (0x400d8c) 

-- PC: (0x400d8c) 

-- PC: (0x400d8c) 

-- PC: (0x400d8e) 

-- PC: (0x400d8e) 

-- PC: (0x400d8e) 

-- PC: (0x400d8e) 

-- PC: (0x400d8e) 

-- PC: (0x400d8e) 

-- PC: (0x400d8e) 

-- PC: (0x400d8e) 

-- PC: (0x400d92) 

-- PC: (0x400d92) 

-- PC: (0x400d92) 

-- PC: (0x400d92) 

-- PC: (0x400d92) 

-- PC: (0x400d92) 

-- PC: (0x400d95) 

-- PC: (0x400d95) 

-- PC: (0x400d95) 

-- PC: (0x400d95) 

-- PC: (0x400d95) 

-- PC: (0x400d95) 

-- PC: (0x400d95) 

-- PC: (0x400d95) 

-- PC: (0x400d99) 

-- PC: (0x400d99) 

-- PC: (0x400d99) 

-- PC: (0x400d99) 

-- PC: (0x400d99) 

-- PC: (0x400d99) 

-- PC: (0x400d99) 

-- PC: (0x400d99) 

-- PC: (0x400d9f) 

-- PC: (0x400d9f) 

-- PC: (0x400d9f) 

-- Tick (68631000) -- ISN: (77986) : L from (0x7fffffffecd8) -- of Size = (4)-- PC: (0x400d01) 

 -- vaddr (0x7fffffffecd8) -- paddr (0xc5cd8) 

-- ReadReq [c5cd8:c5cdb] Hit -- Blk -> state: f (M) valid: 1 writable: 1 readable: 1 dirty: 1 | tag: 0x18 set: 0x173 way: 0 Latency: 2 

-- WriteReq [c5cb8:c5cbb] Hit -- Blk -> state: f (M) valid: 1 writable: 1 readable: 1 dirty: 1 | tag: 0x18 set: 0x172 way: 0 Latency: 2 

-- PC: (0x400d9f) 

-- PC: (0x400d9f) 

-- PC: (0x400d9f) 

-- PC: (0x400d9f) 

-- PC: (0x400d9f) 

-- PC: (0x400d9f) 

-- PC: (0x400d9f) 

-- PC: (0x400d9f) 

-- PC: (0x400d9f) 

-- PC: (0x400d9f) 

-- PC: (0x400da5) 

-- PC: (0x400da5) 

-- PC: (0x400da5) 

-- PC: (0x400da5) 

-- PC: (0x400da5) 

-- PC: (0x400da5) 

-- PC: (0x400da5) 

-- PC: (0x400da5) 

-- PC: (0x400da5) 

-- PC: (0x400da5) 

-- PC: (0x400da7) 

-- PC: (0x400da7) 

-- PC: (0x400da7) 

-- PC: (0x400da7) 

-- PC: (0x400da7) 

-- PC: (0x400da7) 

-- PC: (0x400da7) 

-- PC: (0x400da7) 

-- PC: (0x400dab) 

-- PC: (0x400dab) 

-- PC: (0x400dab) 

-- PC: (0x400b76) 

-- PC: (0x400b76) 

-- PC: (0x400b79) 

-- PC: (0x400b79) 

-- PC: (0x400b79) 

-- PC: (0x400b79) 

-- PC: (0x400dab) 

-- PC: (0x400dab) 

-- PC: (0x400dab) 

-- PC: (0x400dab) 

-- PC: (0x400dab) 

-- PC: (0x400dab) 

-- PC: (0x400d07) 

-- PC: (0x400dab) 

-- PC: (0x400dab) 

-- PC: (0x400dab) 

-- Tick (68633000) -- ISN: (77989) : S -> (0x2) at (0x7fffffffecd8) -- Size = (4)-- PC: (0x400d07) 

 -- vaddr (0x7fffffffecd8) -- paddr (0xc5cd8) 

-- PC: (0x400b87) 

-- PC: (0x400d0a) 

-- PC: (0x400b79) 

-- PC: (0x400b79) 

-- PC: (0x400dab) 

-- PC: (0x400dab) 

-- PC: (0x400dab) 

-- Tick (68633500) -- ISN: (77975) : L from (0x6bc3c0) -- of Size = (1)-- PC: (0x400b87) 

 -- vaddr (0x6bc3c0) -- paddr (0xbc3c0) 

-- ReadReq [bc3c0:bc3c0] Hit -- Blk -> state: 7 (E) valid: 1 writable: 1 readable: 1 dirty: 0 | tag: 0x17 set: 0x10f way: 0 Latency: 2 

-- Tick (68633500) -- ISN: (77990) : L from (0x7fffffffecd8) -- of Size = (4)-- PC: (0x400d0a) 

 -- vaddr (0x7fffffffecd8) -- paddr (0xc5cd8) 

-- PC: (0x400b79) 

-- PC: (0x400b79) 

-- PC: (0x400b79) 

-- PC: (0x400b79) 

-- PC: (0x400b7d) 

-- PC: (0x400b7d) 

-- PC: (0x400dab) 

-- PC: (0x400dab) 

-- PC: (0x400dab) 

-- PC: (0x400b7d) 

-- PC: (0x400b7d) 

-- PC: (0x400b80) 

-- PC: (0x400b80) 

-- PC: (0x400b80) 

-- PC: (0x400b80) 

-- PC: (0x400b80) 

-- PC: (0x400b80) 

-- PC: (0x400b87) 

-- PC: (0x400b87) 

-- PC: (0x400dab) 

-- PC: (0x400dab) 

-- PC: (0x400dab) 

-- PC: (0x400dab) 

-- PC: (0x400dab) 

-- PC: (0x400dab) 

-- PC: (0x400b8b) 

-- PC: (0x400dab) 

-- PC: (0x400dab) 

-- PC: (0x400dab) 

-- Tick (68635500) -- ISN: (77978) : S -> (0x0) at (0x6bb330) -- Size = (1)-- PC: (0x400b8b) 

 -- vaddr (0x6bb330) -- paddr (0xbb330) 

-- PC: (0x400d10) 

-- PC: (0x400cf2) 

-- PC: (0x400cf2) 

-- PC: (0x400cf2) 

-- PC: (0x400cf2) 

-- Sqsh -> ISN (77995)

-- PC: (0x400b87) 

-- PC: (0x400b87) 

-- PC: (0x400b87) 

-- PC: (0x400b87) 

-- PC: (0x400b8b) 

-- PC: (0x400b8b) 

-- PC: (0x400b8b) 

-- PC: (0x400b8b) 

-- PC: (0x400cf2) 

-- PC: (0x400cf2) 

-- ReadReq [cc0:cff] IF Hit -- Blk -> state: 5 (S) valid: 1 writable: 0 readable: 1 dirty: 0 | tag: 0x3 set: 0x3 way: 0 Latency: 2 

-- PC: (0x400b8b) 

[...]

-- PC: (0x400ded) 

-- PC: (0x400ded) 

-- PC: (0x400ded) 

-- PC: (0x400ded) 

-- PC: (0x400ded) 

-- PC: (0x400ded) 

-- PC: (0x400ded) 

-- PC: (0x400ded) 

-- PC: (0x400ded) 

-- PC: (0x400ded) 

-- PC: (0x400ded) 

-- PC: (0x400ded) 

-- PC: (0x400ded) 

-- PC: (0x400ded) 

-- PC: (0x400ded) 

-- PC: (0x400ded) 

-- PC: (0x400ded) 

-- PC: (0x400ded) 

-- PC: (0x400ded) 

-- PC: (0x400ded) 

-- PC: (0x400ded) 

-- PC: (0x400ded) 

-- PC: (0x400ded) 

-- PC: (0x400ded) 

-- PC: (0x400ded) 

-- PC: (0x400ded) 

-- PC: (0x400ded) 

-- PC: (0x400ded) 

-- PC: (0x400ded) 

-- PC: (0x400ded) 

-- PC: (0x400ded) 

-- PC: (0x400ded) 

-- PC: (0x400ded) 

-- PC: (0x400ded) 

-- PC: (0x400ded) 

-- PC: (0x400ded) 

-- PC: (0x400ded) 

-- PC: (0x400ded) 

-- PC: (0x400ded) 

-- PC: (0x400ded) 

-- PC: (0x400ded) 

-- PC: (0x400ded) 

-- PC: (0x400ded) 

-- PC: (0x400ded) 

-- PC: (0x400ded) 

-- PC: (0x400ded) 

-- PC: (0x400ded) 

-- PC: (0x400ded) 

-- PC: (0x400ded) 

-- PC: (0x400ded) 

-- PC: (0x400ded) 

-- PC: (0x400ded) 

-- PC: (0x400ded) 

-- PC: (0x400ded) 

-- PC: (0x400ded) 

-- PC: (0x400ded) 

-- PC: (0x400ded) 

-- PC: (0x400ded) 

-- PC: (0x400ded) 

-- PC: (0x400ded) 

-- PC: (0x400ded) 

-- PC: (0x400ded) 

-- PC: (0x400ded) 

-- PC: (0x400ded) 

-- PC: (0x400ded) 

-- PC: (0x400ded) 

-- PC: (0x400ded) 

-- PC: (0x400ded) 

-- PC: (0x400ded) 

-- PC: (0x400ded) 

-- PC: (0x400ded) 

-- PC: (0x400ded) 

-- PC: (0x400ded) 

-- PC: (0x400ded) 

-- PC: (0x400ded) 

-- PC: (0x400ded) 

-- PC: (0x400ded) 

-- PC: (0x400ded) 

-- PC: (0x400ded) 

-- PC: (0x400ded) 

-- PC: (0x400ded) 

-- PC: (0x400ded) 

-- PC: (0x400ded) 

-- PC: (0x400ded) 

-- PC: (0x400ded) 

-- PC: (0x400ded) 

-- PC: (0x400ded) 

-- PC: (0x400ded) 

-- PC: (0x400ded) 

-- PC: (0x400ded) 

-- PC: (0x400ded) 

-- PC: (0x400ded) 

-- PC: (0x400ded) 

-- PC: (0x400ded) 

-- PC: (0x400b60) 

-- PC: (0x400b91) 

-- PC: (0x400b91) 

-- PC: (0x400b91) 

-- PC: (0x400b91) 

-- Sqsh -> ISN (86134)

-- PC: (0x400b91) 

-- PC: (0x400b91) 

-- ReadReq [b80:bbf] IF Hit -- Blk -> state: 5 (S) valid: 1 writable: 0 readable: 1 dirty: 0 | tag: 0x2 set: 0xe way: 0 Latency: 2 

-- PC: (0x400b91) 

-- PC: (0x400b91) 

-- PC: (0x400b91) 

-- PC: (0x400b91) 

-- PC: (0x400b91) 

-- PC: (0x400b92) 

-- PC: (0x400b92) 

-- PC: (0x400b92) 

-- PC: (0x400b92) 

-- PC: (0x400b92) 

-- PC: (0x400b92) 

-- PC: (0x400b92) 

-- PC: (0x400b92) 

-- PC: (0x400b92) 

-- PC: (0x400b92) 

-- PC: (0x400b93) 

-- PC: (0x400b93) 

-- PC: (0x400b93) 

-- PC: (0x400b93) 

-- PC: (0x400b93) 

-- PC: (0x400b93) 

-- PC: (0x400b93) 

-- PC: (0x400b93) 

-- PC: (0x400b93) 

-- PC: (0x400b93) 

-- PC: (0x400b93) 

-- PC: (0x400d76) 

-- PC: (0x400b93) 

-- PC: (0x400d76) 

-- PC: (0x400d76) 

-- PC: (0x400d76) 

-- PC: (0x400d76) 

-- PC: (0x400d76) 

-- ReadReq [d40:d7f] IF Hit -- Blk -> state: 5 (S) valid: 1 writable: 0 readable: 1 dirty: 0 | tag: 0x3 set: 0x5 way: 0 Latency: 2 

-- PC: (0x400d76) 

-- PC: (0x400d76) 

-- PC: (0x400d76) 

-- PC: (0x400d76) 

-- PC: (0x400d76) 

-- PC: (0x400d76) 

-- PC: (0x400d76) 

-- PC: (0x400d79) 

-- PC: (0x400d79) 

-- PC: (0x400d79) 

-- PC: (0x400d79) 

-- PC: (0x400d79) 

-- PC: (0x400d79) 

-- PC: (0x400d7c) 

-- PC: (0x400d7c) 

-- PC: (0x400d7c) 

-- PC: (0x400d7c) 

-- PC: (0x400d7c) 

-- PC: (0x400d7c) 

-- PC: (0x400d7c) 

-- PC: (0x400d7c) 

-- PC: (0x400d7c) 

-- ReadReq [d80:dbf] IF Hit -- Blk -> state: 5 (S) valid: 1 writable: 0 readable: 1 dirty: 0 | tag: 0x3 set: 0x6 way: 0 Latency: 2 

-- PC: (0x400d7c) 

-- PC: (0x400d7c) 

-- PC: (0x400d7c) 

-- PC: (0x400d7c) 

-- PC: (0x400d81) 

-- PC: (0x400d81) 

-- PC: (0x400d81) 

-- PC: (0x400d81) 

-- PC: (0x400d81) 

-- PC: (0x400d81) 

-- PC: (0x400d81) 

-- PC: (0x400d81) 

-- PC: (0x400d81) 

-- PC: (0x400d81) 

-- PC: (0x400d81) 

-- PC: (0x400d81) 

-- PC: (0x400d81) 

-- PC: (0x400d81) 

-- PC: (0x400d81) 

-- PC: (0x400d81) 

-- PC: (0x400d86) 

-- PC: (0x400d81) 

-- PC: (0x400d86) 

-- PC: (0x400d81) 

-- PC: (0x400d86) 

-- PC: (0x400d86) 

-- PC: (0x400d86) 

-- PC: (0x400d86) 

-- PC: (0x400d86) 

-- PC: (0x400d86) 

-- PC: (0x400d86) 

-- PC: (0x400d86) 

-- PC: (0x400d89) 

-- PC: (0x400d89) 

-- PC: (0x400d89) 

-- PC: (0x400d89) 

-- PC: (0x400d89) 

-- PC: (0x400d89) 

-- PC: (0x400d8c) 

-- PC: (0x400d8c) 

-- PC: (0x400d8c) 

-- PC: (0x400d8c) 

-- PC: (0x400d8c) 

-- PC: (0x400d8c) 

-- PC: (0x400d8c) 

-- PC: (0x400d8c) 

-- PC: (0x400d8c) 

-- PC: (0x400d8c) 

-- PC: (0x400d8c) 

-- PC: (0x400d8c) 

-- PC: (0x400d8c) 

-- PC: (0x400d8e) 

-- PC: (0x400d8e) 

-- PC: (0x400d8e) 

-- PC: (0x400d8e) 

-- PC: (0x400d8e) 

-- PC: (0x400d8e) 

-- PC: (0x400d8e) 

-- PC: (0x400d8e) 

-- PC: (0x400d92) 

-- PC: (0x400d92) 

-- PC: (0x400d92) 

-- PC: (0x400d92) 

-- PC: (0x400d92) 

-- PC: (0x400d92) 

-- PC: (0x400d95) 

-- PC: (0x400d95) 

-- PC: (0x400d95) 

-- PC: (0x400d95) 

-- PC: (0x400d95) 

-- PC: (0x400d95) 

-- PC: (0x400d95) 

-- PC: (0x400d95) 

-- PC: (0x400d99) 

-- PC: (0x400d99) 

-- PC: (0x400d99) 

-- PC: (0x400d99) 

-- PC: (0x400d99) 

-- PC: (0x400d99) 

-- PC: (0x400d99) 

-- PC: (0x400d99) 

-- PC: (0x400d9f) 

-- PC: (0x400d9f) 

-- PC: (0x400d9f) 

-- PC: (0x400d9f) 

-- PC: (0x400d9f) 

-- PC: (0x400d9f) 

-- PC: (0x400d9f) 

-- PC: (0x400d9f) 

-- PC: (0x400d9f) 

-- PC: (0x400d9f) 

-- PC: (0x400d9f) 

-- PC: (0x400d9f) 

-- PC: (0x400d9f) 

-- PC: (0x400da5) 

-- PC: (0x400da5) 

-- PC: (0x400da5) 

-- PC: (0x400da5) 

-- PC: (0x400da5) 

-- PC: (0x400da5) 

-- PC: (0x400da5) 

-- PC: (0x400da5) 

-- PC: (0x400da5) 

-- PC: (0x400da5) 

-- PC: (0x400da7) 

-- PC: (0x400da7) 

-- PC: (0x400da7) 

-- PC: (0x400da7) 

-- PC: (0x400da7) 

-- PC: (0x400da7) 

-- PC: (0x400da7) 

-- PC: (0x400da7) 

-- PC: (0x400dab) 

-- PC: (0x400dab) 

-- PC: (0x400dab) 

-- PC: (0x400dab) 

-- PC: (0x400dab) 

-- PC: (0x400dab) 

-- PC: (0x400dae) 

-- PC: (0x400dae) 

-- PC: (0x400dae) 

-- PC: (0x400dae) 

-- PC: (0x400dae) 

-- PC: (0x400dae) 

-- PC: (0x400dae) 

-- PC: (0x400dae) 

-- PC: (0x400db2) 

-- PC: (0x400db2) 

-- PC: (0x400db2) 

-- PC: (0x400b92) 

-- PC: (0x400b93) 

-- PC: (0x400b92) 

-- PC: (0x400db2) 

-- PC: (0x400db2) 

-- PC: (0x400db2) 

-- PC: (0x400db2) 

-- PC: (0x400db2) 

-- PC: (0x400db2) 

-- PC: (0x400db2) 

-- PC: (0x400db2) 

-- PC: (0x400db8) 

-- PC: (0x400db8) 

-- PC: (0x400db8) 

-- PC: (0x400db8) 

-- PC: (0x400db8) 

-- PC: (0x400db8) 

-- PC: (0x400db8) 

-- PC: (0x400dbe) 

-- PC: (0x400dbe) 

-- PC: (0x400dbe) 

-- PC: (0x400dbe) 

-- PC: (0x400dbe) 

-- PC: (0x400dbe) 

-- PC: (0x400dbe) 

-- PC: (0x400dbe) 

-- PC: (0x400dbe) 

-- PC: (0x400dbe) 

-- PC: (0x400dc0) 

-- PC: (0x400dc0) 

-- PC: (0x400dc0) 

-- PC: (0x400dc0) 

-- PC: (0x400dc0) 

-- PC: (0x400dc0) 

-- ReadReq [dc0:dff] IF Hit -- Blk -> state: 5 (S) valid: 1 writable: 0 readable: 1 dirty: 0 | tag: 0x3 set: 0x7 way: 0 Latency: 2 

-- Tick (72220500) -- ISN: (86210) : L from (0x7fffffffecc0) -- of Size = (8)-- PC: (0x400b92) 

 -- vaddr (0x7fffffffecc0) -- paddr (0xc5cc0) 

-- PC: (0x400b93) 

-- Tick (72221000) -- ISN: (86213) : L from (0x7fffffffecc8) -- of Size = (8)-- PC: (0x400b93) 

 -- vaddr (0x7fffffffecc8) -- paddr (0xc5cc8) 

-- PC: (0x400dc0) 

-- PC: (0x400dc0) 

-- PC: (0x400dc0) 

-- PC: (0x400dc0) 

-- PC: (0x400dc4) 

-- PC: (0x400dc4) 

-- PC: (0x400dc4) 

-- PC: (0x400dc4) 

-- PC: (0x400dc4) 

-- PC: (0x400dc4) 

-- PC: (0x400dc7) 

-- PC: (0x400dc7) 

-- PC: (0x400dc7) 

-- PC: (0x400dc7) 

-- PC: (0x400dc7) 

-- PC: (0x400dc7) 

-- PC: (0x400dc7) 

-- PC: (0x400dc7) 

-- PC: (0x400dcb) 

-- PC: (0x400dcb) 

-- PC: (0x400dcb) 

-- PC: (0x400dcb) 

-- PC: (0x400dcb) 

-- PC: (0x400dcb) 

-- PC: (0x400dcf) 

-- PC: (0x400dcf) 

-- PC: (0x400dcf) 

-- PC: (0x400dcf) 

-- PC: (0x400dcf) 

-- PC: (0x400dcf) 

-- PC: (0x400dcf) 

-- PC: (0x400dcf) 

-- PC: (0x400dcf) 

-- PC: (0x400dcf) 

-- PC: (0x400dd3) 

-- PC: (0x400dd3) 

-- PC: (0x400dd3) 

-- PC: (0x400dd3) 

-- PC: (0x400dd3) 

-- PC: (0x400dd3) 

-- PC: (0x400dd6) 

-- PC: (0x400dd6) 

-- PC: (0x400dd6) 

-- PC: (0x400dd6) 

-- PC: (0x400dd6) 

-- PC: (0x400dd6) 

-- PC: (0x400dd6) 

-- PC: (0x400dd6) 

-- PC: (0x400dda) 

-- PC: (0x400dda) 

-- PC: (0x400dda) 

-- PC: (0x400dda) 

-- PC: (0x400dda) 

-- PC: (0x400dda) 

-- PC: (0x400dda) 

-- PC: (0x400dda) 

-- PC: (0x400dda) 

-- PC: (0x400dda) 

-- PC: (0x400dda) 

-- PC: (0x400dde) 

-- PC: (0x400dde) 

-- PC: (0x400dde) 

-- PC: (0x400dde) 

-- PC: (0x400dde) 

-- PC: (0x400dde) 

-- PC: (0x400dde) 

-- PC: (0x400dde) 

-- PC: (0x400de1) 

-- PC: (0x400de1) 

-- PC: (0x400de1) 

-- PC: (0x400de1) 

-- PC: (0x400de1) 

-- PC: (0x400de1) 

-- PC: (0x400de1) 

-- PC: (0x400de1) 

-- PC: (0x400de8) 

-- PC: (0x400de8) 

-- PC: (0x400de8) 

-- PC: (0x400de8) 

-- PC: (0x400de8) 

-- PC: (0x400ded) 

-- PC: (0x400ded) 

-- PC: (0x400ded) 

-- PC: (0x400ded) 

-- PC: (0x400ded) 

-- PC: (0x400ded) 

-- PC: (0x400ded) 

-- PC: (0x400ded) 

-- PC: (0x400ded) 

-- PC: (0x400ded) 

-- PC: (0x400ded) 

-- PC: (0x400ded) 

-- PC: (0x400ded) 

-- PC: (0x400ded) 

-- PC: (0x400ded) 

-- PC: (0x400ded) 

-- PC: (0x400ded) 

-- PC: (0x400ded) 

-- PC: (0x400ded) 

-- PC: (0x400ded) 

-- PC: (0x400ded) 

-- PC: (0x400ded) 

-- PC: (0x400df2) 

-- PC: (0x400ded) 

-- PC: (0x400df2) 

-- PC: (0x400ded) 

-- PC: (0x400df2) 

-- PC: (0x400df2) 

-- PC: (0x400df2) 

-- PC: (0x400df2) 

-- PC: (0x400df2) 

-- PC: (0x400df2) 

-- PC: (0x400df7) 

-- PC: (0x400df7) 

-- PC: (0x400df7) 

-- PC: (0x400df7) 

-- PC: (0x400df7) 

-- PC: (0x400df7) 

-- PC: (0x400df7) 

-- PC: (0x400df7) 

-- PC: (0x400dfb) 

-- PC: (0x400dfb) 

-- PC: (0x400dfb) 

-- PC: (0x400dfb) 

-- PC: (0x400dfb) 

-- PC: (0x400dfb) 

-- PC: (0x400dfb) 

-- PC: (0x400dfb) 

-- PC: (0x400dfb) 

-- ReadReq [e00:e3f] IF Miss --  Latency: 502 

-- ReadCleanReq [e00:e3f] IF Miss --  Latency: 521 

-- CleanEvict [bc3c0:bc3ff] Hit -- Blk -> state: 7 (E) valid: 1 writable: 1 readable: 1 dirty: 0 | tag: 0x2f set: 0xf way: 0-- PC: (0x400d49) 

-- Tick (72239000) -- ISN: (86057) : S -> (0x0) at (0x6bc3a0) -- Size = (4)-- PC: (0x400d49) 

 -- vaddr (0x6bc3a0) -- paddr (0xbc3a0) 

-- PC: (0x400d43) 

-- PC: (0x400d43) 

-- PC: (0x400d49) 

-- PC: (0x400d49) 

-- PC: (0x400d49) 

-- PC: (0x400d49) 

-- PC: (0x400d49) 

-- PC: (0x400d49) 

-- PC: (0x400d4f) 

-- PC: (0x400d4f) 

-- PC: (0x400d4f) 

-- PC: (0x400d4f) 

-- WriteReq [bc3a0:bc3a3] Hit -- Blk -> state: f (M) valid: 1 writable: 1 readable: 1 dirty: 1 | tag: 0x17 set: 0x10e way: 0 Latency: 2 

-- PC: (0x400d55) 

-- Tick (72244000) -- ISN: (86061) : S -> (0x0) at (0x6bc3a0) -- Size = (4)-- PC: (0x400d55) 

 -- vaddr (0x6bc3a0) -- paddr (0xbc3a0) 

-- PC: (0x400d4f) 

-- PC: (0x400d4f) 

-- PC: (0x400d55) 

-- PC: (0x400d55) 

-- PC: (0x400d55) 

-- PC: (0x400d55) 

-- PC: (0x400d55) 

-- PC: (0x400d55) 

-- PC: (0x400d5b) 

-- PC: (0x400d5b) 

-- PC: (0x400d5b) 

-- PC: (0x400d5b) 

-- PC: (0x400d5b) 

-- PC: (0x400d5b) 

-- PC: (0x400d61) 

-- PC: (0x400d61) 

-- PC: (0x400d61) 

-- PC: (0x400d61) 

-- PC: (0x400d61) 

-- PC: (0x400d61) 

-- PC: (0x400d67) 

-- PC: (0x400d67) 

-- PC: (0x400d67) 

-- PC: (0x400d67) 

-- PC: (0x400d6c) 

-- PC: (0x400d6c) 

-- PC: (0x400d6c) 

-- PC: (0x400d6c) 

-- PC: (0x400d71) 

-- PC: (0x400d71) 

-- PC: (0x400d71) 

-- PC: (0x400d71) 

-- PC: (0x400d71) 

-- PC: (0x400d71) 

-- PC: (0x400d71) 

-- PC: (0x400d71) 

-- PC: (0x400d71) 

-- PC: (0x400d71) 

-- PC: (0x400d71) 

-- PC: (0x400d71) 

-- PC: (0x400b4d) 

-- PC: (0x400b4d) 

-- PC: (0x400b4d) 

-- PC: (0x400b4d) 

-- PC: (0x400b4d) 

-- PC: (0x400b4d) 

-- PC: (0x400b4e) 

-- PC: (0x400b4e) 

-- PC: (0x400b4e) 

-- PC: (0x400b4e) 

-- PC: (0x400b51) 

-- PC: (0x400b51) 

-- PC: (0x400b51) 

-- PC: (0x400b51) 

-- PC: (0x400b54) 

-- PC: (0x400b54) 

-- WriteReq [bc3a0:bc3a3] Hit -- Blk -> state: f (M) valid: 1 writable: 1 readable: 1 dirty: 1 | tag: 0x17 set: 0x10e way: 0 Latency: 2 

-- PC: (0x400b54) 

-- PC: (0x400b54) 

-- PC: (0x400b57) 

-- PC: (0x400b57) 

-- PC: (0x400b57) 

-- PC: (0x400b57) 

-- PC: (0x400b57) 

-- PC: (0x400b57) 

-- PC: (0x400b5d) 

-- PC: (0x400b5d) 

-- PC: (0x400b5d) 

-- PC: (0x400b5d) 

-- PC: (0x400b5d) 

-- PC: (0x400b5d) 

-- PC: (0x400b60) 

-- PC: (0x400b60) 

-- PC: (0x400b60) 

-- PC: (0x400b60) 

-- PC: (0x400b60) 

-- PC: (0x400b60) 

-- PC: (0x400b60) 

-- PC: (0x400b60) 

-- PC: (0x400b91) 

-- PC: (0x400b91) 

-- PC: (0x400b91) 

-- PC: (0x400b91) 

-- PC: (0x400b92) 

-- PC: (0x400b92) 

-- PC: (0x400b92) 

-- PC: (0x400b92) 

-- PC: (0x400b92) 

-- PC: (0x400b92) 

-- PC: (0x400b92) 

-- PC: (0x400b92) 

-- PC: (0x400b93) 

-- PC: (0x400b93) 

-- PC: (0x400b93) 

-- PC: (0x400b93) 

-- PC: (0x400b93) 

-- PC: (0x400b93) 

-- PC: (0x400b93) 

-- PC: (0x400b93) 

-- PC: (0x400d76) 

-- PC: (0x400d76) 

-- PC: (0x400d76) 

-- PC: (0x400d76) 

-- PC: (0x400d79) 

-- PC: (0x400d79) 

-- WriteReq [bc3a0:bc3a3] Hit -- Blk -> state: f (M) valid: 1 writable: 1 readable: 1 dirty: 1 | tag: 0x17 set: 0x10e way: 0 Latency: 2 

-- WriteReq [c5cc8:c5ccf] Hit -- Blk -> state: f (M) valid: 1 writable: 1 readable: 1 dirty: 1 | tag: 0x18 set: 0x173 way: 0 Latency: 2 

-- WriteReq [c5cc0:c5cc7] Hit -- Blk -> state: f (M) valid: 1 writable: 1 readable: 1 dirty: 1 | tag: 0x18 set: 0x173 way: 0 Latency: 2 

-- WriteReq [c5cbc:c5cbf] Hit -- Blk -> state: f (M) valid: 1 writable: 1 readable: 1 dirty: 1 | tag: 0x18 set: 0x172 way: 0 Latency: 2 

-- CleanEvict [c4400:c443f] Hit -- Blk -> state: 7 (E) valid: 1 writable: 1 readable: 1 dirty: 0 | tag: 0x31 set: 0x10 way: 0x1-- WriteReq [c5cb8:c5cbb] Hit -- Blk -> state: f (M) valid: 1 writable: 1 readable: 1 dirty: 1 | tag: 0x18 set: 0x172 way: 0 Latency: 2 

-- PC: (0x400d81) 

-- PC: (0x400d81) 

-- PC: (0x400d81) 

-- PC: (0x400e4e) 

-- PC: (0x400e4e) 

-- PC: (0x400e4e) 

-- PC: (0x400e4e) 

-- Sqsh -> ISN (86223)

-- Tick (72255500) -- ISN: (86221) : S -> (0x86) at (0x7fffffffecc8) -- Size = (8)-- PC: (0x400d81) 

 -- vaddr (0x7fffffffecc8) -- paddr (0xc5cc8) 

-- PC: (0x400e4e) 

-- PC: (0x400e4e) 

-- ReadReq [e40:e7f] IF Miss --  Latency: 502 

-- PC: (0x400d79) 

-- PC: (0x400d79) 

-- PC: (0x400d7c) 

-- PC: (0x400d7c) 

-- PC: (0x400d7c) 

-- PC: (0x400d7c) 

-- PC: (0x400d81) 

-- PC: (0x400d81) 

-- PC: (0x400d81) 

-- PC: (0x400d81) 

-- PC: (0x400d81) 

-- PC: (0x400d81) 

-- PC: (0x400d81) 

-- PC: (0x400d81) 

-- PC: (0x400d81) 

-- PC: (0x400d81) 

-- PC: (0x400d81) 

-- PC: (0x400d81) 

-- PC: (0x400e4e) 

-- PC: (0x400e4e) 

-- ReadCleanReq [e40:e7f] IF Hit -- Blk -> state: 7 (E) valid: 1 writable: 1 readable: 1 dirty: 0 | tag: 0 set: 0x39 way: 0x1 Latency: 21 

-- WriteReq [c5cc8:c5ccf] Hit -- Blk -> state: f (M) valid: 1 writable: 1 readable: 1 dirty: 1 | tag: 0x18 set: 0x173 way: 0 Latency: 2 

-- WritebackClean [15640:1567f] Hit -- Blk -> state: 7 (E) valid: 1 writable: 1 readable: 1 dirty: 0 | tag: 0x5 set: 0x59 way: 0-- PC: (0x400e4e) 

-- PC: (0x400e4e) 

-- PC: (0x400e4e) 

-- PC: (0x400e4e) 

-- PC: (0x400e4e) 

-- PC: (0x400e4e) 

-- PC: (0x400e4e) 

-- PC: (0x400e52) 

-- PC: (0x400e52) 

-- PC: (0x400e52) 

-- PC: (0x400e52) 

-- PC: (0x400e52) 

-- PC: (0x400e52) 

-- PC: (0x400e52) 

-- PC: (0x400e52) 

-- PC: (0x400e52) 

-- PC: (0x400e52) 

-- PC: (0x400e52) 

-- PC: (0x400d86) 

-- PC: (0x400e52) 

-- PC: (0x400d86) 

-- PC: (0x400d86) 

-- PC: (0x400d86) 

-- PC: (0x400d86) 

-- PC: (0x400d86) 

-- ReadReq [d80:dbf] IF Hit -- Blk -> state: 5 (S) valid: 1 writable: 0 readable: 1 dirty: 0 | tag: 0x3 set: 0x6 way: 0 Latency: 2 

-- PC: (0x400d86) 

-- PC: (0x400d86) 

-- PC: (0x400d86) 

-- PC: (0x400d86) 

-- PC: (0x400d86) 

-- PC: (0x400d86) 

-- PC: (0x400d86) 

-- PC: (0x400d89) 

-- PC: (0x400d89) 

-- PC: (0x400d89) 

-- PC: (0x400d89) 

-- PC: (0x400d89) 

-- PC: (0x400d89) 

-- PC: (0x400d8c) 

-- PC: (0x400d8c) 

-- PC: (0x400d8c) 

-- PC: (0x400d8c) 

-- PC: (0x400d8c) 

-- PC: (0x400d8c) 

-- PC: (0x400d8c) 

-- PC: (0x400d8c) 

-- PC: (0x400d8c) 

-- PC: (0x400d8c) 

-- PC: (0x400d8e) 

-- PC: (0x400d8e) 

-- PC: (0x400d8e) 

-- PC: (0x400d8e) 

-- PC: (0x400d8e) 

-- PC: (0x400d8e) 

-- PC: (0x400d8e) 

-- PC: (0x400d8e) 

-- PC: (0x400d92) 

-- PC: (0x400d92) 

-- PC: (0x400d92) 

-- PC: (0x400d92) 

-- PC: (0x400d92) 

-- PC: (0x400d92) 

-- PC: (0x400d95) 

-- PC: (0x400d95) 

-- PC: (0x400d95) 

-- PC: (0x400d95) 

-- PC: (0x400d95) 

-- PC: (0x400d95) 

-- PC: (0x400d95) 

-- PC: (0x400d95) 

-- PC: (0x400d99) 

-- PC: (0x400d99) 

-- PC: (0x400d99) 

-- PC: (0x400d99) 

-- PC: (0x400d99) 

-- PC: (0x400d99) 

-- PC: (0x400d99) 

-- PC: (0x400d99) 

-- PC: (0x400d99) 

-- PC: (0x400d99) 

-- PC: (0x400d99) 

-- PCa3[8056] access time => t2-t1 = 16
a3[8072] access time => t3-t2 = 40
: (0x400d9f) 

-- PC: (0x400d9f) 

-- PC: (0x400d9f) 

-- PC: (0x400d9f) 

-- PC: (0x400d9f) 

-- PC: (0x400d9f) 

-- PC: (0x400d9f) 

-- PC: (0x400d9f) 

-- PC: (0x400d9f) 

-- PC: (0x400d9f) 

-- PC: (0x400da5) 

-- PC: (0x400da5) 

-- PC: (0x400da5) 

-- PC: (0x400da5) 

-- PC: (0x400da5) 

-- PC: (0x400da5) 

-- PC: (0x400da5) 

-- PC: (0x400da5) 

-- PC: (0x400da5) 

-- PC: (0x400da5) 

-- PC: (0x400da7) 

-- PC: (0x400da7) 

-- PC: (0x400da7) 

-- PC: (0x400da7) 

-- PC: (0x400da7) 

-- PC: (0x400da7) 

-- PC: (0x400da7) 

-- PC: (0x400da7) 

-- PC: (0x400dab) 

-- PC: (0x400dab) 

-- PC: (0x400dab) 

-- PC: (0x400dab) 

-- PC: (0x400dab) 

-- PC: (0x400dab) 

-- PC: (0x400dab) 

-- PC: (0x400dab) 

-- PC: (0x400dab) 

-- PC: (0x400dae) 

-- PC: (0x400dae) 

-- PC: (0x400dae) 

-- PC: (0x400dae) 

-- PC: (0x400dae) 

-- PC: (0x400dae) 

-- PC: (0x400dae) 

-- PC: (0x400dae) 

-- PC: (0x400db2) 

-- PC: (0x400db2) 

-- PC: (0x400db2) 

-- PC: (0x400db2) 

-- PC: (0x400db2) 

-- PC: (0x400db2) 

-- PC: (0x400db2) 

-- PC: (0x400db2) 

-- PC: (0x400db8) 

-- PC: (0x400db8) 

-- PC: (0x400db8) 

-- PC: (0x400db8) 

-- PC: (0x400db8) 

-- PC: (0x400db8) 

-- PC: (0x400db8) 

-- PC: (0x400dbe) 

-- PC: (0x400dbe) 

-- PC: (0x400dbe) 

-- PC: (0x400dbe) 

-- PC: (0x400dbe) 

-- PC: (0x400dbe) 

-- PC: (0x400dbe) 

-- PC: (0x400dbe) 

-- PC: (0x400dbe) 

-- PC: (0x400dbe) 

-- PC: (0x400e52) 

-- PC: (0x400e52) 

-- PC: (0x400dbe) 

-- PC: (0x400dbe) 

-- PC: (0x400dbe) 

-- PC: (0x400dbe) 

-- PC: (0x400dc0) 

-- PC: (0x400dc0) 

-- PC: (0x400dc0) 

-- PC: (0x400dc0) 

-- PC: (0x400dc0) 

-- PC: (0x400dc0) 

-- ReadReq [dc0:dff] IF Hit -- Blk -> state: 5 (S) valid: 1 writable: 0 readable: 1 dirty: 0 | tag: 0x3 set: 0x7 way: 0 Latency: 2 

-- Tick (72271500) -- ISN: (86271) : L from (0x7fffffffecc8) -- of Size = (8)-- PC: (0x400e52) 

 -- vaddr (0x7fffffffecc8) -- paddr (0xc5cc8) 

-- ReadReq [c5cc8:c5ccf] Hit -- Blk -> state: f (M) valid: 1 writable: 1 readable: 1 dirty: 1 | tag: 0x18 set: 0x173 way: 0 Latency: 2 

-- PC: (0x400dc0) 

-- PC: (0x400dc0) 

-- PC: (0x400dc0) 

-- PC: (0x400dc0) 

-- PC: (0x400dc4) 

-- PC: (0x400dc4) 

-- PC: (0x400dc4) 

-- PC: (0x400dc4) 

-- PC: (0x400dc4) 

-- PC: (0x400dc4) 

-- PC: (0x400dc7) 

-- PC: (0x400dc7) 

-- PC: (0x400dc7) 

-- PC: (0x400dc7) 

-- PC: (0x400dc7) 

-- PC: (0x400dc7) 

-- PC: (0x400dc7) 

-- PC: (0x400dc7) 

-- PC: (0x400dcb) 

-- PC: (0x400dcb) 

-- PC: (0x400dcb) 

-- PC: (0x400dcb) 

-- PC: (0x400dcb) 

-- PC: (0x400dcb) 

-- PC: (0x400dcf) 

-- PC: (0x400dcf) 

-- PC: (0x400dcf) 

-- PC: (0x400dcf) 

-- PC: (0x400dcf) 

-- PC: (0x400dcf) 

-- PC: (0x400dcf) 

-- PC: (0x400dcf) 

-- PC: (0x400dcf) 

-- PC: (0x400dcf) 

-- PC: (0x400dd3) 

-- PC: (0x400dd3) 

-- PC: (0x400dd3) 

-- PC: (0x400dd3) 

-- PC: (0x400dd3) 

-- PC: (0x400dd3) 

-- PC: (0x400dd6) 

-- PC: (0x400dd6) 

-- PC: (0x400dd6) 

-- PC: (0x400dd6) 

-- PC: (0x400dd6) 

-- PC: (0x400dd6) 

-- PC: (0x400dd6) 

-- PC: (0x400dd6) 

-- PC: (0x400dda) 

-- PC: (0x400dda) 

-- PC: (0x400dda) 

HERE 2 : enable_memreq_tracing = 0
Exiting @ tick 82165500 because exiting with last active thread context
