gem5 Simulator System.  http://gem5.org
gem5 is copyrighted software; use the --copyright option for details.

gem5 compiled Apr  1 2020 15:50:10
gem5 started Apr  3 2020 14:19:36
gem5 executing on tarund-desk, pid 13625
command line: build/X86/gem5.opt configs/example/se.py --cmd=./tests/my_progs/spectre_test_3_clean --cpu-type=DerivO3CPU --caches --mem-size=4GB --l1d_size=32kB --l1i_size=1kB --l1d_assoc=1 --l1i_assoc=1 --cacheline_size=64

Global frequency set at 1000000000000 ticks per second
**** REAL SIMULATION ****

Address of a1_len = 0x6b90f0 

Address of i = 0x7fffffffecd4 

Address of j = 0x7fffffffecd8 

Address of x = 0x6bc3a0 

Address of y = 0x6bc428 

Address of z = 0x6bc424 

Address of array1 = 0x6bc440 

Address of array2 = 0x6bc3c0 

Address of array3 = 0x6bc5e0 
HERE 1 : enable_memreq_tracing = 1
-- PC: (0x400cdf) 

-- PC: (0x400ce9) 

-- PC: (0x400cf2) 

-- PC: (0x400d24) 

-- PC: (0x400d24) 

-- PC: (0x400d24) 

-- PC: (0x400d24) 

-- PC: (0x400d24) 

-- PC: (0x400d24) 

-- PC: (0x400d28) 

-- PC: (0x400d28) 

-- PC: (0x400d28) 

-- PC: (0x400d28) 

-- PC: (0x400d28) 

-- PC: (0x400d2c) 

-- PC: (0x400d2c) 

-- PC: (0x400d2c) 

-- PC: (0x400d2c) 

-- PC: (0x400d2c) 

-- PC: (0x400d2c) 

-- PC: (0x400d30) 

-- PC: (0x400d30) 

-- PC: (0x400d30) 

-- PC: (0x400d30) 

-- PC: (0x400d30) 

-- PC: (0x400d30) 

-- PC: (0x400d30) 

-- PC: (0x400d33) 

-- PC: (0x400d33) 

-- PC: (0x400d33) 

-- PC: (0x400d33) 

-- PC: (0x400d33) 

-- PC: (0x400d33) 

-- PC: (0x400d38) 

-- PC: (0x400d38) 

-- PC: (0x400d38) 

-- PC: (0x400d38) 

-- PC: (0x400d38) 

-- PC: (0x400d38) 

-- PC: (0x400d38) 

-- PC: (0x400d38) 

-- PC: (0x400d38) 

-- Tick (115429000) -- ISN: (76421) : S -> (0x1) at (0x6bc5e4) -- Size = (4)-- PC: (0x400cdf) 

 -- vaddr (0x6bc5e4) -- paddr (0xbc5e4) 

-- Tick (115429000) -- ISN: (76423) : S -> (0x0) at (0x7fffffffecd8) -- Size = (4)-- PC: (0x400ce9) 

 -- vaddr (0x7fffffffecd8) -- paddr (0xc5cd8) 

-- Tick (115429000) -- ISN: (76427) : L from (0x7fffffffecd8) -- of Size = (4)-- PC: (0x400cf2) 

 -- vaddr (0x7fffffffecd8) -- paddr (0xc5cd8) 

-- PC: (0x400d38) 

-- PC: (0x400d38) 

-- PC: (0x400d38) 

-- PC: (0x400d38) 

-- PC: (0x400d38) 

-- PC: (0x400d38) 

-- PC: (0x400d38) 

-- PC: (0x400d38) 

-- PC: (0x400d38) 

-- PC: (0x400d38) 

-- PC: (0x400d3d) 

-- PC: (0x400d38) 

-- PC: (0x400d3d) 

-- PC: (0x400d38) 

-- PC: (0x400d3d) 

-- PC: (0x400d3d) 

-- PC: (0x400d3d) 

-- PC: (0x400d3d) 

-- PC: (0x400d3d) 

-- PC: (0x400d3d) 

-- PC: (0x400d40) 

-- PC: (0x400d40) 

-- PC: (0x400d40) 

-- PC: (0x400d40) 

-- PC: (0x400d40) 

-- PC: (0x400d40) 

-- ReadReq [d40:d7f] IF Miss --  Latency: 502 

-- PC: (0x400cfc) 

-- PC: (0x400cfc) 

-- PC: (0x400d01) 

-- PC: (0x400d01) 

-- PC: (0x400cf0) 

-- PC: (0x400d0a) 

-- PC: (0x400d0a) 

-- PC: (0x400d0a) 

-- Sqsh -> ISN (76426)

-- PC: (0x400d0a) 

-- PC: (0x400d0a) 

-- ReadReq [d00:d3f] IF Hit -- Blk -> state: 7 (E) valid: 1 writable: 1 readable: 1 dirty: 0 | tag: 0x3 set: 0x4 way: 0 Latency: 2 

-- PC: (0x400e4e) 

-- PC: (0x400e4e) 

-- PC: (0x400e52) 

-- PC: (0x400e52) 

-- PC: (0x400e52) 

-- PC: (0x400e52) 

-- PC: (0x400e52) 

-- PC: (0x400e52) 

-- PC: (0x400e52) 

-- PC: (0x400e52) 

-- PC: (0x400cdf) 

-- PC: (0x400cdf) 

-- PC: (0x400cdf) 

-- PC: (0x400cdf) 

-- PC: (0x400cdf) 

-- PC: (0x400cdf) 

-- PC: (0x400cdf) 

-- PC: (0x400cdf) 

-- PC: (0x400ce9) 

-- PC: (0x400ce9) 

-- PC: (0x400ce9) 

-- PC: (0x400ce9) 

-- PC: (0x400ce9) 

-- PC: (0x400ce9) 

-- PC: (0x400cf0) 

-- PC: (0x400cf0) 

-- PC: (0x400cf0) 

-- PC: (0x400cf0) 

-- PC: (0x400cf0) 

-- PC: (0x400cf0) 

-- PC: (0x400cf0) 

-- PC: (0x400cf0) 

-- PC: (0x400d0a) 

-- PC: (0x400d0a) 

-- PC: (0x400d0a) 

-- PC: (0x400d0a) 

-- PC: (0x400d0a) 

-- PC: (0x400d0a) 

-- PC: (0x400d0a) 

-- PC: (0x400d0d) 

-- PC: (0x400d0d) 

-- PC: (0x400d0d) 

-- PC: (0x400d0d) 

-- PC: (0x400d0d) 

-- PC: (0x400d0d) 

-- PC: (0x400d0d) 

-- PC: (0x400d0d) 

-- PC: (0x400d10) 

-- PC: (0x400d10) 

-- PC: (0x400d10) 

-- PC: (0x400d10) 

-- PC: (0x400d10) 

-- PC: (0x400d10) 

-- PC: (0x400d10) 

-- PC: (0x400d10) 

-- PC: (0x400d10) 

-- PC: (0x400d10) 

-- PC: (0x400d10) 

-- PC: (0x400d12) 

-- PC: (0x400d10) 

-- PC: (0x400d12) 

-- PC: (0x400d10) 

-- PC: (0x400d12) 

-- PC: (0x400d12) 

-- PC: (0x400d12) 

-- PC: (0x400d12) 

-- PC: (0x400d12) 

-- PC: (0x400d12) 

-- PC: (0x400d15) 

-- PC: (0x400d15) 

-- PC: (0x400d15) 

-- PC: (0x400d15) 

-- PC: (0x400d15) 

-- PC: (0x400d15) 

-- PC: (0x400d18) 

-- PC: (0x400d18) 

-- PC: (0x400d18) 

-- WriteReq [bc5e4:bc5e7] Miss --  Latency: 502 

-- PC: (0x400d18) 

-- PC: (0x400d18) 

-- PC: (0x400d18) 

-- PC: (0x400d18) 

-- PC: (0x400d18) 

-- PC: (0x400d18) 

-- PC: (0x400d18) 

-- PC: (0x400d1f) 

-- PC: (0x400d1f) 

-- PC: (0x400d1f) 

-- PC: (0x400d1f) 

-- PC: (0x400d1f) 

-- PC: (0x400d1f) 

-- PC: (0x400d1f) 

-- PC: (0x400d1f) 

-- PC: (0x400d1f) 

-- PC: (0x400d1f) 

-- PC: (0x400d1f) 

-- PC: (0x400d1f) 

-- PC: (0x400d1f) 

-- PC: (0x400d1f) 

-- PC: (0x400d1f) 

-- PC: (0x400d1f) 

-- PC: (0x400d1f) 

-- PC: (0x400d1f) 

-- PC: (0x400d24) 

-- PC: (0x400d1f) 

-- PC: (0x400d24) 

-- PC: (0x400d1f) 

-- PC: (0x400d24) 

-- PC: (0x400d24) 

-- PC: (0x400d24) 

-- PC: (0x400d24) 

-- PC: (0x400d24) 

-- PC: (0x400d24) 

-- PC: (0x400d28) 

-- PC: (0x400d28) 

-- PC: (0x400d28) 

-- PC: (0x400d28) 

-- PC: (0x400d28) 

-- PC: (0x400d28) 

-- PC: (0x400d28) 

-- PC: (0x400d28) 

-- PC: (0x400d2c) 

-- PC: (0x400d2c) 

-- PC: (0x400d2c) 

-- PC: (0x400d2c) 

-- PC: (0x400d2c) 

-- PC: (0x400d2c) 

-- PC: (0x400d30) 

-- PC: (0x400d30) 

-- PC: (0x400d30) 

-- PC: (0x400d30) 

-- PC: (0x400d30) 

-- PC: (0x400d30) 

-- PC: (0x400d30) 

-- PC: (0x400d33) 

-- PC: (0x400d33) 

-- PC: (0x400d33) 

-- PC: (0x400d33) 

-- PC: (0x400d33) 

-- PC: (0x400d33) 

-- PC: (0x400d38) 

-- PC: (0x400d38) 

-- PC: (0x400d38) 

-- PC: (0x400d38) 

-- PC: (0x400d38) 

-- PC: (0x400d38) 

-- PC: (0x400d38) 

-- PC: (0x400d38) 

-- PC: (0x400d38) 

-- PC: (0x400d38) 

-- PC: (0x400d38) 

-- PC: (0x400d38) 

-- PC: (0x400d38) 

-- PC: (0x400d38) 

-- PC: (0x400d38) 

-- PC: (0x400d38) 

-- PC: (0x400d38) 

-- PC: (0x400d38) 

-- PC: (0x400d38) 

-- PC: (0x400d3d) 

-- PC: (0x400d38) 

-- PC: (0x400d3d) 

-- PC: (0x400d38) 

-- PC: (0x400d3d) 

-- PC: (0x400d3d) 

-- PC: (0x400d3d) 

-- PC: (0x400d3d) 

-- PC: (0x400d3d) 

-- PC: (0x400d3d) 

-- PC: (0x400d40) 

-- PC: (0x400d40) 

-- PC: (0x400d40) 

-- PC: (0x400d40) 

-- PC: (0x400d40) 

-- PC: (0x400d40) 

-- ReadReq [d40:d7f] IF Miss --  Latency: 502 

-- PC: (0x400d40) 

-- PC: (0x400d40) 

-- PC: (0x400d40) 

-- PC: (0x400d40) 

-- PC: (0x400d43) 

-- PC: (0x400d43) 

-- PC: (0x400d43) 

-- PC: (0x400d43) 

-- PC: (0x400d43) 

-- PC: (0x400d43) 

-- PC: (0x400d43) 

-- PC: (0x400d43) 

-- PC: (0x400d43) 

-- PC: (0x400d43) 

-- PC: (0x400d49) 

-- PC: (0x400d49) 

-- PC: (0x400d49) 

-- PC: (0x400d49) 

-- PC: (0x400d49) 

-- PC: (0x400d49) 

-- PC: (0x400d49) 

-- PC: (0x400d49) 

-- PC: (0x400d4f) 

-- PC: (0x400d4f) 

-- PC: (0x400d4f) 

-- PC: (0x400d4f) 

-- PC: (0x400d4f) 

-- PC: (0x400d4f) 

-- PC: (0x400d4f) 

-- PC: (0x400d4f) 

-- PC: (0x400d4f) 

-- PC: (0x400d4f) 

-- PC: (0x400d55) 

-- PC: (0x400d55) 

-- PC: (0x400d55) 

-- PC: (0x400d55) 

-- PC: (0x400d55) 

-- PC: (0x400d55) 

-- PC: (0x400d55) 

-- PC: (0x400d55) 

-- PC: (0x400d55) 

-- PC: (0x400d55) 

-- PC: (0x400d55) 

-- PC: (0x400d55) 

-- PC: (0x400d55) 

-- PC: (0x400d55) 

-- PC: (0x400d5b) 

-- PC: (0x400d5b) 

-- PC: (0x400d5b) 

-- PC: (0x400d5b) 

-- PC: (0x400d5b) 

-- PC: (0x400d5b) 

-- PC: (0x400d5b) 

-- PC: (0x400d5b) 

-- PC: (0x400d5b) 

-- PC: (0x400d5b) 

-- PC: (0x400d61) 

-- PC: (0x400d61) 

-- PC: (0x400d61) 

-- PC: (0x400d61) 

-- PC: (0x400d61) 

-- PC: (0x400d61) 

-- PC: (0x400d61) 

-- PC: (0x400d61) 

-- PC: (0x400d67) 

-- PC: (0x400d67) 

-- PC: (0x400d67) 

-- PC: (0x400d67) 

-- PC: (0x400d67) 

-- PC: (0x400d67) 

-- PC: (0x400d67) 

-- PC: (0x400d67) 

-- PC: (0x400d6c) 

-- PC: (0x400d6c) 

-- PC: (0x400d6c) 

-- PC: (0x400d6c) 

-- PC: (0x400d6c) 

-- PC: (0x400d6c) 

-- PC: (0x400d6c) 

-- PC: (0x400d6c) 

-- PC: (0x400d71) 

-- PC: (0x400d71) 

-- PC: (0x400d71) 

-- PC: (0x400d71) 

-- PC: (0x400d71) 

-- PC: (0x400d71) 

-- PC: (0x400d71) 

-- PC: (0x400d71) 

-- PC: (0x400d71) 

-- PC: (0x400d71) 

-- PC: (0x400d71) 

-- PC: (0x400d71) 

-- PC: (0x400d71) 

-- PC: (0x400d71) 

-- PC: (0x400d71) 

-- PC: (0x400d71) 

-- PC: (0x400d71) 

-- PC: (0x400d71) 

-- PC: (0x400d71) 

-- PC: (0x400d71) 

-- PC: (0x400d76) 

-- PC: (0x400d71) 

-- PC: (0x400d76) 

-- PC: (0x400d71) 

-- PC: (0x400d76) 

-- PC: (0x400d76) 

-- PC: (0x400d76) 

-- PC: (0x400d76) 

-- PC: (0x400d76) 

-- PC: (0x400d76) 

-- PC: (0x400d76) 

-- PC: (0x400d76) 

-- PC: (0x400d79) 

-- PC: (0x400d79) 

-- PC: (0x400d79) 

-- PC: (0x400d79) 

-- PC: (0x400d79) 

-- PC: (0x400d79) 

-- PC: (0x400d7c) 

-- PC: (0x400d7c) 

-- PC: (0x400d7c) 

-- PC: (0x400d7c) 

-- PC: (0x400d7c) 

-- PC: (0x400d7c) 

-- PC: (0x400d7c) 

-- PC: (0x400d7c) 

-- PC: (0x400d7c) 

-- ReadReq [d80:dbf] IF Miss --  Latency: 502 

-- WriteReq [c5cd8:c5cdb] Hit -- Blk -> state: f (M) valid: 1 writable: 1 readable: 1 dirty: 1 | tag: 0x18 set: 0x173 way: 0 Latency: 2 

-- PC: (0x400d0a) 

-- PC: (0x400d0a) 

-- Tick (115514000) -- ISN: (76466) : L from (0x7fffffffecd8) -- of Size = (4)-- PC: (0x400d0a) 

 -- vaddr (0x7fffffffecd8) -- paddr (0xc5cd8) 

-- ReadReq [c5cd8:c5cdb] Hit -- Blk -> state: f (M) valid: 1 writable: 1 readable: 1 dirty: 1 | tag: 0x18 set: 0x173 way: 0 Latency: 2 

-- PC: (0x400d0a) 

-- PC: (0x400d0a) 

-- PC: (0x400d0d) 

-- PC: (0x400d0d) 

-- PC: (0x400d0d) 

-- PC: (0x400d0d) 

-- PC: (0x400d10) 

-- PC: (0x400cf2) 

-- PC: (0x400cf2) 

-- PC: (0x400cf2) 

-- PC: (0x400cf2) 

-- Sqsh -> ISN (76471)

-- PC: (0x400d0d) 

-- PC: (0x400d0d) 

-- PC: (0x400d10) 

-- PC: (0x400d10) 

-- PC: (0x400d10) 

-- PC: (0x400d10) 

-- PC: (0x400d10) 

-- PC: (0x400d10) 

-- PC: (0x400d10) 

-- PC: (0x400d10) 

-- PC: (0x400cf2) 

-- PC: (0x400cf2) 

-- PC: (0x400cf2) 

-- PC: (0x400cf2) 

-- ReadReq [cc0:cff] IF Hit -- Blk -> state: 7 (E) valid: 1 writable: 1 readable: 1 dirty: 0 | tag: 0x3 set: 0x3 way: 0 Latency: 2 

-- PC: (0x400cf2) 

-- PC: (0x400cf2) 

-- PC: (0x400cf2) 

-- PC: (0x400cf2) 

-- PC: (0x400cf2) 

-- PC: (0x400cf5) 

-- PC: (0x400cf5) 

-- PC: (0x400cf5) 

-- PC: (0x400cf5) 

-- PC: (0x400cf5) 

-- PC: (0x400cf5) 

-- PC: (0x400cf5) 

-- PC: (0x400cf5) 

-- PC: (0x400cfa) 

-- PC: (0x400cfa) 

-- PC: (0x400cfa) 

-- PC: (0x400cfa) 

-- PC: (0x400cfa) 

-- PC: (0x400cfa) 

-- PC: (0x400cfc) 

-- PC: (0x400cfc) 

-- PC: (0x400cfc) 

-- PC: (0x400cfc) 

-- PC: (0x400cfc) 

-- PC: (0x400cfc) 

-- PC: (0x400cfc) 

-- PC: (0x400cfc) 

-- PC: (0x400cfc) 

-- ReadReq [d00:d3f] IF Hit -- Blk -> state: 7 (E) valid: 1 writable: 1 readable: 1 dirty: 0 | tag: 0x3 set: 0x4 way: 0 Latency: 2 

-- PC: (0x400cfc) 

-- PC: (0x400cfc) 

-- PC: (0x400cfc) 

-- PC: (0x400cfc) 

-- PC: (0x400cfc) 

-- PC: (0x400cfc) 

-- PC: (0x400cfc) 

-- PC: (0x400cfc) 

-- PC: (0x400cfc) 

-- PC: (0x400cfc) 

-- PC: (0x400cfc) 

-- PC: (0x400cfc) 

-- PC: (0x400cfc) 

-- PC: (0x400cfc) 

-- PC: (0x400d01) 

-- PC: (0x400cfc) 

-- PC: (0x400d01) 

-- PC: (0x400cfc) 

-- PC: (0x400d01) 

-- PC: (0x400d01) 

-- PC: (0x400d01) 

-- PC: (0x400d01) 

-- PC: (0x400d01) 

-- PC: (0x400d01) 

-- PC: (0x400d04) 

-- PC: (0x400d04) 

-- PC: (0x400d04) 

-- PC: (0x400d04) 

-- PC: (0x400d04) 

-- PC: (0x400d04) 

-- PC: (0x400d04) 

-- PC: (0x400d04) 

-- PC: (0x400d07) 

-- PC: (0x400d07) 

-- PC: (0x400d07) 

-- PC: (0x400d07) 

-- PC: (0x400d07) 

-- PC: (0x400d07) 

-- PC: (0x400d07) 

-- PC: (0x400d07) 

-- PC: (0x400d07) 

-- PC: (0x400d07) 

-- PC: (0x400d07) 

-- PC: (0x400d0a) 

-- PC: (0x400d0a) 

-- PC: (0x400d0a) 

-- PC: (0x400d0a) 

-- PC: (0x400d0a) 

-- PC: (0x400d0a) 

-- PC: (0x400d0d) 

-- PC: (0x400d0d) 

-- PC: (0x400d0d) 

-- PC: (0x400d0d) 

-- PC: (0x400d0d) 

-- PC: (0x400d0d) 

-- PC: (0x400d0d) 

-- PC: (0x400d0d) 

-- PC: (0x400d10) 

-- PC: (0x400d10) 

-- PC: (0x400d10) 

-- PC: (0x400d10) 

-- PC: (0x400d10) 

-- PC: (0x400d10) 

-- PC: (0x400d10) 

-- PC: (0x400d10) 

-- PC: (0x400d10) 

-- PC: (0x400d10) 

-- PC: (0x400d10) 

-- PC: (0x400d12) 

-- PC: (0x400d10) 

-- PC: (0x400d12) 

-- PC: (0x400d10) 

-- PC: (0x400d12) 

-- PC: (0x400d12) 

-- PC: (0x400d12) 

-- PC: (0x400d12) 

-- PC: (0x400d12) 

-- PC: (0x400d12) 

-- PC: (0x400d15) 

-- PC: (0x400d15) 

-- PC: (0x400d15) 

-- PC: (0x400d15) 

-- PC: (0x400d15) 

-- PC: (0x400d15) 

-- PC: (0x400d15) 

-- PC: (0x400d15) 

-- PC: (0x400d15) 

-- PC: (0x400d18) 

-- PC: (0x400d18) 

-- PC: (0x400d18) 

-- PC: (0x400d18) 

-- PC: (0x400d18) 

-- PC: (0x400d18) 

-- PC: (0x400d18) 

-- PC: (0x400d1f) 

-- PC: (0x400d1f) 

-- PC: (0x400d1f) 

-- PC: (0x400d1f) 

-- PC: (0x400d1f) 

-- PC: (0x400d1f) 

-- PC: (0x400d1f) 

-- PC: (0x400d1f) 

-- PC: (0x400d1f) 

-- PC: (0x400d1f) 

-- PC: (0x400d1f) 

-- PC: (0x400d1f) 

-- PC: (0x400d1f) 

-- PC: (0x400d1f) 

-- PC: (0x400d1f) 

-- PC: (0x400d1f) 

-- PC: (0x400d1f) 

-- PC: (0x400d1f) 

-- PC: (0x400d24) 

-- PC: (0x400d1f) 

-- PC: (0x400d24) 

-- PC: (0x400d1f) 

-- PC: (0x400d24) 

-- PC: (0x400d24) 

-- PC: (0x400d24) 

-- PC: (0x400cf2) 

-- PC: (0x400cf2) 

-- PC: (0x400d24) 

-- PC: (0x400d24) 

-- PC: (0x400d24) 

-- PC: (0x400d24) 

-- PC: (0x400d24) 

-- PC: (0x400d24) 

-- PC: (0x400d28) 

-- PC: (0x400d28) 

-- PC: (0x400d28) 

-- PC: (0x400d28) 

-- PC: (0x400d28) 

-- PC: (0x400d2c) 

-- PC: (0x400d2c) 

-- PC: (0x400d2c) 

-- PC: (0x400d2c) 

-- PC: (0x400d2c) 

-- PC: (0x400d2c) 

-- PC: (0x400d30) 

-- PC: (0x400d30) 

-- PC: (0x400d30) 

-- PC: (0x400d30) 

-- PC: (0x400d30) 

-- PC: (0x400d30) 

-- PC: (0x400d30) 

-- PC: (0x400d33) 

-- PC: (0x400d33) 

-- PC: (0x400d33) 

-- PC: (0x400d33) 

-- PC: (0x400d33) 

-- PC: (0x400d33) 

-- PC: (0x400d38) 

-- PC: (0x400d38) 

-- PC: (0x400d38) 

-- PC: (0x400d38) 

-- PC: (0x400d38) 

-- PC: (0x400d38) 

-- PC: (0x400d38) 

-- PC: (0x400d38) 

-- PC: (0x400d38) 

-- Tick (115521000) -- ISN: (76515) : L from (0x7fffffffecd8) -- of Size = (4)-- PC: (0x400cf2) 

 -- vaddr (0x7fffffffecd8) -- paddr (0xc5cd8) 

-- ReadReq [c5cd8:c5cdb] Hit -- Blk -> state: f (M) valid: 1 writable: 1 readable: 1 dirty: 1 | tag: 0x18 set: 0x173 way: 0 Latency: 2 

-- PC: (0x400d38) 

-- PC: (0x400d38) 

-- PC: (0x400d38) 

-- PC: (0x400d38) 

-- PC: (0x400d38) 

-- PC: (0x400d38) 

-- PC: (0x400d38) 

-- PC: (0x400d38) 

-- PC: (0x400d38) 

-- PC: (0x400d38) 

-- PC: (0x400d3d) 

-- PC: (0x400d38) 

-- PC: (0x400d3d) 

-- PC: (0x400d38) 

-- PC: (0x400d3d) 

-- PC: (0x400d3d) 

-- PC: (0x400d3d) 

-- PC: (0x400d3d) 

-- PC: (0x400d3d) 

-- PC: (0x400d3d) 

-- PC: (0x400d40) 

-- PC: (0x400d40) 

-- PC: (0x400d40) 

-- PC: (0x400d40) 

-- PC: (0x400d40) 

-- PC: (0x400d40) 

-- ReadReq [d40:d7f] IF Hit -- Blk -> state: 7 (E) valid: 1 writable: 1 readable: 1 dirty: 0 | tag: 0x3 set: 0x5 way: 0 Latency: 2 

-- PC: (0x400cfc) 

-- PC: (0x400cfc) 

-- PC: (0x400d01) 

-- PC: (0x400d01) 

-- PC: (0x400d07) 

-- PC: (0x400d07) 

-- PC: (0x400d0a) 

-- Tick (115522000) -- ISN: (76523) : L from (0x7fffffffecd8) -- of Size = (4)-- PC: (0x400d01) 

 -- vaddr (0x7fffffffecd8) -- paddr (0xc5cd8) 

-- ReadReq [c5cd8:c5cdb] Hit -- Blk -> state: f (M) valid: 1 writable: 1 readable: 1 dirty: 1 | tag: 0x18 set: 0x173 way: 0 Latency: 2 

-- PC: (0x400cfc) 

-- PC: (0x400d0a) 

-- PC: (0x400d40) 

-- PC: (0x400d40) 

-- PC: (0x400d40) 

-- PC: (0x400d40) 

-- PC: (0x400d43) 

-- PC: (0x400d43) 

-- PC: (0x400d43) 

-- PC: (0x400d43) 

-- PC: (0x400d43) 

-- PC: (0x400d43) 

-- PC: (0x400d43) 

-- PC: (0x400d43) 

-- PC: (0x400d43) 

-- PC: (0x400d43) 

-- PC: (0x400d49) 

-- PC: (0x400d49) 

-- PC: (0x400d49) 

-- PC: (0x400d49) 

-- PC: (0x400d49) 

-- PC: (0x400d49) 

-- PC: (0x400d49) 

-- PC: (0x400d49) 

-- PC: (0x400d4f) 

-- PC: (0x400d4f) 

-- PC: (0x400d4f) 

-- PC: (0x400d4f) 

-- PC: (0x400d4f) 

-- PC: (0x400d4f) 

-- PC: (0x400d4f) 

-- PC: (0x400d4f) 

-- PC: (0x400d4f) 

-- PC: (0x400d4f) 

-- PC: (0x400d55) 

-- PC: (0x400d55) 

-- PC: (0x400d55) 

-- PC: (0x400d55) 

-- PC: (0x400d55) 

-- PC: (0x400d55) 

-- PC: (0x400d55) 

-- PC: (0x400d55) 

-- PC: (0x400d55) 

-- PC: (0x400d55) 

-- Tick (115522500) -- ISN: (76520) : S -> (0x1) at (0x7fffffffecc8) -- Size = (8)-- PC: (0x400cfc) 

 -- vaddr (0x7fffffffecc8) -- paddr (0xc5cc8) 

-- Tick (115522500) -- ISN: (76527) : L from (0x7fffffffecd8) -- of Size = (4)-- PC: (0x400d0a) 

 -- vaddr (0x7fffffffecd8) -- paddr (0xc5cd8) 

-- ReadReq [c5cd8:c5cdb] Hit -- Blk -> state: f (M) valid: 1 writable: 1 readable: 1 dirty: 1 | tag: 0x18 set: 0x173 way: 0 Latency: 2 

-- PC: (0x400d55) 

-- PC: (0x400d55) 

-- PC: (0x400d55) 

-- PC: (0x400d55) 

-- PC: (0x400d5b) 

-- PC: (0x400d5b) 

-- PC: (0x400d5b) 

-- PC: (0x400d5b) 

-- PC: (0x400d5b) 

-- PC: (0x400d5b) 

-- PC: (0x400d5b) 

-- PC: (0x400d5b) 

-- PC: (0x400d5b) 

-- PC: (0x400d5b) 

-- PC: (0x400d61) 

-- PC: (0x400d61) 

-- PC: (0x400d61) 

-- PC: (0x400d61) 

-- PC: (0x400d61) 

-- PC: (0x400d61) 

-- PC: (0x400d61) 

-- PC: (0x400d61) 

-- PC: (0x400d67) 

-- PC: (0x400d67) 

-- PC: (0x400d67) 

-- PC: (0x400d67) 

-- PC: (0x400d67) 

-- PC: (0x400d67) 

-- PC: (0x400d67) 

-- PC: (0x400d67) 

-- PC: (0x400d6c) 

-- PC: (0x400d6c) 

-- PC: (0x400d6c) 

-- PC: (0x400d6c) 

-- PC: (0x400d6c) 

-- PC: (0x400d6c) 

-- PC: (0x400d6c) 

-- PC: (0x400d6c) 

-- PC: (0x400d71) 

-- PC: (0x400d71) 

-- PC: (0x400d71) 

-- PC: (0x400d71) 

-- PC: (0x400d71) 

-- PC: (0x400d71) 

-- PC: (0x400d71) 

-- PC: (0x400d71) 

-- PC: (0x400cfc) 

-- PC: (0x400b4d) 

-- PC: (0x400b4d) 

-- PC: (0x400b4d) 

-- PC: (0x400b4d) 

-- Sqsh -> ISN (76522)

-- PC: (0x400b4d) 

-- PC: (0x400b4d) 

-- ReadReq [b40:b7f] IF Miss --  Latency: 502 

-- PC: (0x400cf2) 

-- PC: (0x400cf2) 

-- PC: (0x400cf5) 

-- PC: (0x400cf5) 

-- PC: (0x400cf5) 

-- PC: (0x400cf5) 

-- PC: (0x400cfa) 

-- PC: (0x400cfa) 

-- PC: (0x400cfa) 

-- PC: (0x400cfa) 

-- PC: (0x400cfc) 

-- PC: (0x400cfc) 

-- PC: (0x400cfc) 

-- PC: (0x400cfc) 

-- PC: (0x400cfc) 

-- PC: (0x400cfc) 

-- PC: (0x400cfc) 

-- PC: (0x400cfc) 

-- PC: (0x400cfc) 

-- PC: (0x400cfc) 

-- PC: (0x400cfc) 

-- PC: (0x400cfc) 

-- PC: (0x400b4d) 

-- PC: (0x400b4d) 

-- WriteReq [c5cc8:c5ccf] Hit -- Blk -> state: f (M) valid: 1 writable: 1 readable: 1 dirty: 1 | tag: 0x18 set: 0x173 way: 0 Latency: 2 

-- PC: (0x400b4d) 

-- PC: (0x400b4d) 

-- PC: (0x400b4d) 

-- PC: (0x400b4d) 

-- PC: (0x400b4d) 

-- PC: (0x400b4d) 

-- PC: (0x400b4d) 

-- PC: (0x400b4e) 

-- PC: (0x400b4e) 

-- PC: (0x400b4e) 

-- PC: (0x400b4e) 

-- PC: (0x400b4e) 

-- PC: (0x400b4e) 

-- PC: (0x400b4e) 

-- PC: (0x400b4e) 

-- PC: (0x400b51) 

-- PC: (0x400b51) 

-- PC: (0x400b51) 

-- PC: (0x400b51) 

-- PC: (0x400b51) 

-- PC: (0x400b51) 

-- PC: (0x400b54) 

-- PC: (0x400b54) 

-- PC: (0x400b54) 

-- PC: (0x400b54) 

-- PC: (0x400b54) 

-- PC: (0x400b54) 

-- PC: (0x400b57) 

-- PC: (0x400b57) 

-- PC: (0x400b57) 

-- PC: (0x400b57) 

-- PC: (0x400b57) 

-- PC: (0x400b57) 

-- PC: (0x400b57) 

-- PC: (0x400b57) 

-- PC: (0x400b57) 

-- PC: (0x400b57) 

-- PC: (0x400b5d) 

-- PC: (0x400b5d) 

-- PC: (0x400b5d) 

-- PC: (0x400b5d) 

-- PC: (0x400b5d) 

-- PC: (0x400b5d) 

-- PC: (0x400b5d) 

-- PC: (0x400b5d) 

-- PC: (0x400b5d) 

-- PC: (0x400b5d) 

-- PC: (0x400b5d) 

-- PC: (0x400b5d) 

-- PC: (0x400b60) 

-- PC: (0x400b60) 

-- PC: (0x400b60) 

-- PC: (0x400b60) 

-- PC: (0x400b60) 

-- PC: (0x400b60) 

-- PC: (0x400b60) 

-- PC: (0x400b60) 

-- PC: (0x400b60) 

-- PC: (0x400b60) 

-- PC: (0x400b60) 

-- PC: (0x400b62) 

-- PC: (0x400b60) 

-- PC: (0x400b62) 

-- PC: (0x400b60) 

-- PC: (0x400b62) 

-- PC: (0x400b62) 

-- PC: (0x400b62) 

-- PC: (0x400b62) 

-- PC: (0x400b62) 

-- PC: (0x400b62) 

-- PC: (0x400b65) 

-- PC: (0x400b65) 

-- PC: (0x400b65) 

-- PC: (0x400b65) 

-- PC: (0x400b65) 

-- PC: (0x400b65) 

-- PC: (0x400b67) 

-- PC: (0x400b67) 

-- PC: (0x400b67) 

-- PC: (0x400b67) 

-- PC: (0x400b67) 

-- PC: (0x400b67) 

-- PC: (0x400b67) 

-- PC: (0x400b67) 

-- PC: (0x400b6f) 

-- PC: (0x400b6f) 

-- PC: (0x400b6f) 

-- PC: (0x400b6f) 

-- PC: (0x400b6f) 

-- PC: (0x400b6f) 

-- PC: (0x400b6f) 

-- PC: (0x400b6f) 

-- PC: (0x400b6f) 

-- PC: (0x400b6f) 

-- PC: (0x400b6f) 

-- PC: (0x400b6f) 

-- PC: (0x400b6f) 

-- PC: (0x400b6f) 

-- PC: (0x400b76) 

-- PC: (0x400b76) 

-- PC: (0x400b76) 

-- PC: (0x400b76) 

-- PC: (0x400b76) 

-- PC: (0x400b76) 

-- PC: (0x400b76) 

-- PC: (0x400b76) 

-- PC: (0x400b79) 

-- PC: (0x400b79) 

-- PC: (0x400b79) 

-- PC: (0x400b79) 

-- PC: (0x400b79) 

-- PC: (0x400b79) 

-- PC: (0x400b79) 

-- PC: (0x400b79) 

-- PC: (0x400b79) 

-- PC: (0x400b79) 

-- PC: (0x400b79) 

-- PC: (0x400b79) 

-- PC: (0x400b7d) 

-- PC: (0x400b7d) 

-- PC: (0x400b7d) 

-- PC: (0x400b7d) 

-- PC: (0x400b7d) 

-- PC: (0x400b7d) 

-- PC: (0x400b80) 

-- PC: (0x400b80) 

-- PC: (0x400b80) 

-- PC: (0x400b80) 

-- PC: (0x400b80) 

-- PC: (0x400b80) 

-- ReadReq [b80:bbf] IF Miss --  Latency: 502 

-- PC: (0x400b4d) 

-- PC: (0x400b4d) 

-- PC: (0x400b51) 

-- PC: (0x400b51) 

-- PC: (0x400b54) 

-- PC: (0x400b54) 

-- PC: (0x400b57) 

-- PC: (0x400b5d) 

-- PC: (0x400b4d) 

-- PC: (0x400b62) 

-- Tick (115577500) -- ISN: (76570) : S -> (0x10) at (0x7fffffffecc0) -- Size = (8)-- PC: (0x400b4d) 

 -- vaddr (0x7fffffffecc0) -- paddr (0xc5cc0) 

-- PC: (0x400b57) 

-- PC: (0x400b76) 

-- PC: (0x400b79) 

-- Tick (115578000) -- ISN: (76576) : L from (0x6b90f0) -- of Size = (4)-- PC: (0x400b57) 

 -- vaddr (0x6b90f0) -- paddr (0xb90f0) 

-- ReadReq [b90f0:b90f3] Hit -- Blk -> state: f (M) valid: 1 writable: 1 readable: 1 dirty: 1 | tag: 0x17 set: 0x43 way: 0 Latency: 2 

-- PC: (0x400b51) 

-- PC: (0x400b54) 

-- PC: (0x400b5d) 

-- PC: (0x400b62) 

-- Tick (115578500) -- ISN: (76573) : S -> (0x0) at (0x7fffffffecbc) -- Size = (4)-- PC: (0x400b51) 

 -- vaddr (0x7fffffffecbc) -- paddr (0xc5cbc) 

-- Tick (115578500) -- ISN: (76574) : S -> (0x0) at (0x7fffffffecb8) -- Size = (4)-- PC: (0x400b54) 

 -- vaddr (0x7fffffffecb8) -- paddr (0xc5cb8) 

-- Tick (115578500) -- ISN: (76577) : L from (0x7fffffffecbc) -- of Size = (4)-- PC: (0x400b5d) 

 -- vaddr (0x7fffffffecbc) -- paddr (0xc5cbc) 

-- Tick (115578500) -- ISN: (76582) : L from (0x7fffffffecbc) -- of Size = (4)-- PC: (0x400b62) 

 -- vaddr (0x7fffffffecbc) -- paddr (0xc5cbc) 

-- PC: (0x400b79) 

-- PC: (0x400b4d) 

-- PC: (0x400b4d) 

-- PC: (0x400b4d) 

-- PC: (0x400b4d) 

-- PC: (0x400b4e) 

-- PC: (0x400b4e) 

-- Tick (115579000) -- ISN: (76588) : L from (0x7fffffffecb8) -- of Size = (4)-- PC: (0x400b79) 

 -- vaddr (0x7fffffffecb8) -- paddr (0xc5cb8) 

-- PC: (0x400b4e) 

-- PC: (0x400b4e) 

-- PC: (0x400b51) 

-- PC: (0x400b51) 

-- WriteReq [c5cc0:c5cc7] Hit -- Blk -> state: f (M) valid: 1 writable: 1 readable: 1 dirty: 1 | tag: 0x18 set: 0x173 way: 0 Latency: 2 

-- PC: (0x400b51) 

-- PC: (0x400b51) 

-- PC: (0x400b54) 

-- PC: (0x400b54) 

-- PC: (0x400b54) 

-- PC: (0x400b54) 

-- PC: (0x400b57) 

-- PC: (0x400b57) 

-- PC: (0x400b57) 

-- PC: (0x400b57) 

-- PC: (0x400b76) 

-- PC: (0x400b57) 

-- PC: (0x400b57) 

-- PC: (0x400b5d) 

-- PC: (0x400b5d) 

-- PC: (0x400b5d) 

-- PC: (0x400b5d) 

-- Tick (115580500) -- ISN: (76587) : L from (0x6bc440) -- of Size = (4)-- PC: (0x400b76) 

 -- vaddr (0x6bc440) -- paddr (0xbc440) 

-- ReadReq [bc440:bc443] Miss --  Latency: 502 

-- WriteReq [c5cbc:c5cbf] Hit -- Blk -> state: f (M) valid: 1 writable: 1 readable: 1 dirty: 1 | tag: 0x18 set: 0x172 way: 0 Latency: 2 

-- PC: (0x400b5d) 

-- PC: (0x400b5d) 

-- PC: (0x400b60) 

-- PC: (0x400b60) 

-- PC: (0x400b60) 

-- PC: (0x400b60) 

-- PC: (0x400b60) 

-- PC: (0x400b60) 

-- PC: (0x400b60) 

-- PC: (0x400b60) 

-- PC: (0x400b62) 

-- PC: (0x400b62) 

-- PC: (0x400b62) 

-- PC: (0x400b62) 

-- PC: (0x400b65) 

-- PC: (0x400b65) 

-- PC: (0x400b65) 

-- PC: (0x400b65) 

-- PC: (0x400b67) 

-- PC: (0x400b67) 

-- PC: (0x400b67) 

-- PC: (0x400b67) 

-- PC: (0x400b6f) 

-- PC: (0x400b6f) 

-- PC: (0x400b6f) 

-- PC: (0x400b6f) 

-- PC: (0x400b6f) 

-- PC: (0x400b6f) 

-- PC: (0x400b76) 

-- PC: (0x400b76) 

-- WriteReq [c5cb8:c5cbb] Hit -- Blk -> state: f (M) valid: 1 writable: 1 readable: 1 dirty: 1 | tag: 0x18 set: 0x172 way: 0 Latency: 2 

-- PC: (0x400b80) 

-- PC: (0x400b80) 

-- PC: (0x400b80) 

-- PC: (0x400b80) 

-- PC: (0x400b80) 

-- PC: (0x400b80) 

-- PC: (0x400b87) 

-- PC: (0x400b87) 

-- PC: (0x400b87) 

-- PC: (0x400b87) 

-- PC: (0x400b87) 

-- PC: (0x400b87) 

-- PC: (0x400b87) 

-- PC: (0x400b87) 

-- PC: (0x400b87) 

-- PC: (0x400b87) 

-- PC: (0x400b8b) 

-- PC: (0x400b8b) 

-- PC: (0x400b8b) 

-- PC: (0x400b8b) 

-- PC: (0x400b8b) 

-- PC: (0x400b8b) 

-- PC: (0x400b8b) 

-- PC: (0x400b8b) 

-- PC: (0x400b8b) 

-- PC: (0x400b8b) 

-- PC: (0x400b91) 

-- PC: (0x400b91) 

-- PC: (0x400b91) 

-- PC: (0x400b91) 

-- PC: (0x400b91) 

-- PC: (0x400b91) 

-- PC: (0x400b92) 

-- PC: (0x400b92) 

-- PC: (0x400b92) 

-- PC: (0x400b92) 

-- PC: (0x400b92) 

-- PC: (0x400b92) 

-- PC: (0x400b92) 

-- PC: (0x400b92) 

-- PC: (0x400b92) 

-- PC: (0x400b92) 

-- PC: (0x400b92) 

-- PC: (0x400b92) 

-- PC: (0x400b92) 

-- PC: (0x400b92) 

-- PC: (0x400b93) 

-- PC: (0x400b93) 

-- PC: (0x400b93) 

-- PC: (0x400b93) 

-- PC: (0x400b93) 

-- PC: (0x400b93) 

-- PC: (0x400b93) 

-- PC: (0x400b93) 

-- PC: (0x400b93) 

-- PC: (0x400b93) 

-- PC: (0x400b93) 

-- PC: (0x400d01) 

-- PC: (0x400b93) 

-- PC: (0x400d01) 

-- PC: (0x400d01) 

-- PC: (0x400d01) 

-- PC: (0x400d01) 

-- PC: (0x400d01) 

-- ReadReq [d00:d3f] IF Hit -- Blk -> state: 7 (E) valid: 1 writable: 1 readable: 1 dirty: 0 | tag: 0x3 set: 0x4 way: 0 Latency: 2 

-- PC: (0x400d01) 

-- PC: (0x400d01) 

-- PC: (0x400d01) 

-- PC: (0x400d01) 

-- PC: (0x400d01) 

-- PC: (0x400d04) 

-- PC: (0x400d04) 

-- PC: (0x400d04) 

-- PC: (0x400d04) 

-- PC: (0x400d04) 

-- PC: (0x400d04) 

-- PC: (0x400d04) 

-- PC: (0x400d04) 

-- PC: (0x400d07) 

-- PC: (0x400d07) 

-- PC: (0x400d07) 

-- PC: (0x400d07) 

-- PC: (0x400d07) 

-- PC: (0x400d07) 

-- PC: (0x400d07) 

-- PC: (0x400d07) 

-- PC: (0x400d0a) 

-- PC: (0x400d0a) 

-- PC: (0x400d0a) 

-- PC: (0x400d0a) 

-- PC: (0x400d0a) 

-- PC: (0x400d0a) 

-- PC: (0x400d0d) 

-- PC: (0x400d0d) 

-- PC: (0x400d0d) 

-- PC: (0x400d0d) 

-- PC: (0x400d0d) 

-- PC: (0x400d0d) 

-- PC: (0x400d0d) 

-- PC: (0x400d0d) 

-- PC: (0x400d10) 

-- PC: (0x400d10) 

-- PC: (0x400d10) 

-- PC: (0x400d10) 

-- PC: (0x400d10) 

-- PC: (0x400d10) 

-- PC: (0x400d10) 

-- PC: (0x400d10) 

-- PC: (0x400d10) 

-- PC: (0x400d10) 

-- PC: (0x400d10) 

-- PC: (0x400d10) 

-- PC: (0x400d10) 

-- PC: (0x400d10) 

-- PC: (0x400d10) 

-- PC: (0x400d12) 

-- PC: (0x400d10) 

-- PC: (0x400d12) 

-- PC: (0x400d10) 

-- PC: (0x400d12) 

-- PC: (0x400d12) 

-- PC: (0x400d12) 

-- PC: (0x400d12) 

-- PC: (0x400d12) 

-- PC: (0x400d12) 

-- PC: (0x400d15) 

-- PC: (0x400d15) 

-- PC: (0x400d15) 

-- PC: (0x400d15) 

-- PC: (0x400d15) 

-- PC: (0x400d15) 

-- PC: (0x400d18) 

-- PC: (0x400d18) 

-- PC: (0x400d18) 

-- PC: (0x400d18) 

-- PC: (0x400d18) 

-- PC: (0x400d18) 

-- PC: (0x400d18) 

-- PC: (0x400d1f) 

-- PC: (0x400d1f) 

-- PC: (0x400d1f) 

-- PC: (0x400d1f) 

-- PC: (0x400d1f) 

-- PC: (0x400d1f) 

-- PC: (0x400d1f) 

-- PC: (0x400d1f) 

-- PC: (0x400d1f) 

-- PC: (0x400d1f) 

-- PC: (0x400d1f) 

-- PC: (0x400d1f) 

-- PC: (0x400b87) 

-- PC: (0x400b8b) 

-- PC: (0x400b8b) 

-- PC: (0x400b92) 

-- PC: (0x400b92) 

-- PC: (0x400d1f) 

-- PC: (0x400d1f) 

-- PC: (0x400d1f) 

-- PC: (0x400d1f) 

-- PC: (0x400d1f) 

-- PC: (0x400d1f) 

-- PC: (0x400d1f) 

-- PC: (0x400d1f) 

-- PC: (0x400d1f) 

-- PC: (0x400d1f) 

-- PC: (0x400d24) 

-- PC: (0x400d1f) 

-- PC: (0x400d24) 

-- PC: (0x400d1f) 

-- PC: (0x400d24) 

-- PC: (0x400d24) 

-- PC: (0x400d24) 

-- PC: (0x400d24) 

-- PC: (0x400d24) 

-- PC: (0x400d24) 

-- PC: (0x400d28) 

-- PC: (0x400d28) 

-- PC: (0x400d28) 

-- PC: (0x400d28) 

-- PC: (0x400d28) 

-- PC: (0x400d2c) 

-- PC: (0x400d2c) 

-- PC: (0x400d2c) 

-- PC: (0x400d2c) 

-- PC: (0x400d2c) 

-- PC: (0x400d2c) 

-- PC: (0x400d30) 

-- PC: (0x400d30) 

-- PC: (0x400d30) 

-- PC: (0x400d30) 

-- PC: (0x400d30) 

-- PC: (0x400d30) 

-- PC: (0x400d30) 

-- PC: (0x400d33) 

-- PC: (0x400d33) 

-- PC: (0x400d33) 

-- PC: (0x400b93) 

-- Tick (115632500) -- ISN: (76600) : L from (0x7fffffffecc0) -- of Size = (8)-- PC: (0x400b92) 

 -- vaddr (0x7fffffffecc0) -- paddr (0xc5cc0) 

-- ReadReq [c5cc0:c5cc7] Hit -- Blk -> state: f (M) valid: 1 writable: 1 readable: 1 dirty: 1 | tag: 0x18 set: 0x173 way: 0 Latency: 2 

-- PC: (0x400d33) 

-- PC: (0x400d33) 

-- PC: (0x400d33) 

-- PC: (0x400d33) 

-- PC: (0x400d33) 

-- PC: (0x400d33) 

-- PC: (0x400d38) 

-- PC: (0x400d38) 

-- PC: (0x400d38) 

-- PC: (0x400d38) 

-- PC: (0x400d38) 

-- PC: (0x400d38) 

-- PC: (0x400d38) 

-- PC: (0x400d38) 

-- PC: (0x400d38) 

-- PC: (0x400d38) 

-- PC: (0x400d38) 

-- PC: (0x400d38) 

-- PC: (0x400d38) 

-- PC: (0x400d38) 

-- PC: (0x400d38) 

-- PC: (0x400d3d) 

-- PC: (0x400d38) 

-- PC: (0x400d3d) 

-- PC: (0x400d38) 

-- PC: (0x400d3d) 

-- PC: (0x400d3d) 

-- PC: (0x400d3d) 

-- PC: (0x400d3d) 

-- PC: (0x400d3d) 

-- PC: (0x400d3d) 

-- PC: (0x400d40) 

-- PC: (0x400d40) 

-- PC: (0x400d40) 

-- PC: (0x400d40) 

-- PC: (0x400d40) 

-- PC: (0x400d40) 

-- ReadReq [d40:d7f] IF Hit -- Blk -> state: 7 (E) valid: 1 writable: 1 readable: 1 dirty: 0 | tag: 0x3 set: 0x5 way: 0 Latency: 2 

-- PC: (0x400b93) 

-- PC: (0x400d01) 

-- PC: (0x400d07) 

-- PC: (0x400d07) 

-- PC: (0x400d0a) 

-- Tick (115633500) -- ISN: (76603) : L from (0x7fffffffecc8) -- of Size = (8)-- PC: (0x400b93) 

 -- vaddr (0x7fffffffecc8) -- paddr (0xc5cc8) 

-- ReadReq [c5cc8:c5ccf] Hit -- Blk -> state: f (M) valid: 1 writable: 1 readable: 1 dirty: 1 | tag: 0x18 set: 0x173 way: 0 Latency: 2 

-- PC: (0x400d40) 

-- PC: (0x400d40) 

-- PC: (0x400d40) 

-- PC: (0x400d40) 

-- PC: (0x400d43) 

-- PC: (0x400d43) 

-- PC: (0x400d43) 

-- PC: (0x400d43) 

-- PC: (0x400d43) 

-- PC: (0x400d43) 

-- PC: (0x400d43) 

-- PC: (0x400d43) 

-- PC: (0x400d43) 

-- PC: (0x400d43) 

-- PC: (0x400d49) 

-- PC: (0x400d49) 

-- PC: (0x400d49) 

-- PC: (0x400d49) 

-- PC: (0x400d49) 

-- PC: (0x400d49) 

-- PC: (0x400d49) 

-- PC: (0x400d49) 

-- PC: (0x400d4f) 

-- PC: (0x400d4f) 

-- PC: (0x400d4f) 

-- PC: (0x400d4f) 

-- PC: (0x400d4f) 

-- PC: (0x400d4f) 

-- PC: (0x400d4f) 

-- PC: (0x400d4f) 

-- PC: (0x400d4f) 

-- PC: (0x400d4f) 

-- PC: (0x400d55) 

-- PC: (0x400d55) 

-- PC: (0x400d55) 

-- PC: (0x400d55) 

-- PC: (0x400d55) 

-- PC: (0x400d55) 

-- PC: (0x400d55) 

-- PC: (0x400d55) 

-- PC: (0x400d55) 

-- PC: (0x400d55) 

-- PC: (0x400d01) 

-- PC: (0x400d0a) 

-- PC: (0x400d55) 

-- PC: (0x400d55) 

-- PC: (0x400d55) 

-- PC: (0x400d55) 

-- PC: (0x400d5b) 

-- PC: (0x400d5b) 

-- PC: (0x400d5b) 

-- PC: (0x400d5b) 

-- PC: (0x400d5b) 

-- PC: (0x400d5b) 

-- PC: (0x400d5b) 

-- PC: (0x400d5b) 

-- PC: (0x400d5b) 

-- PC: (0x400d5b) 

-- PC: (0x400d61) 

-- PC: (0x400d61) 

-- PC: (0x400d61) 

-- PC: (0x400d61) 

-- PC: (0x400d61) 

-- PC: (0x400d61) 

-- PC: (0x400d61) 

-- PC: (0x400d61) 

-- PC: (0x400d67) 

-- PC: (0x400d67) 

-- PC: (0x400d67) 

-- PC: (0x400d67) 

-- PC: (0x400d67) 

-- PC: (0x400d67) 

-- PC: (0x400d67) 

-- PC: (0x400d67) 

-- PC: (0x400d6c) 

-- PC: (0x400d6c) 

-- PC: (0x400d6c) 

-- PC: (0x400d6c) 

-- PC: (0x400d6c) 

-- PC: (0x400d6c) 

-- PC: (0x400d6c) 

-- PC: (0x400d6c) 

-- PC: (0x400d71) 

-- PC: (0x400d71) 

-- PC: (0x400d71) 

-- PC: (0x400d71) 

-- PC: (0x400d71) 

-- PC: (0x400d71) 

-- PC: (0x400d71) 

-- PC: (0x400d71) 

-- Tick (115634500) -- ISN: (76606) : L from (0x7fffffffecd8) -- of Size = (4)-- PC: (0x400d01) 

 -- vaddr (0x7fffffffecd8) -- paddr (0xc5cd8) 

-- ReadReq [c5cd8:c5cdb] Hit -- Blk -> state: f (M) valid: 1 writable: 1 readable: 1 dirty: 1 | tag: 0x18 set: 0x173 way: 0 Latency: 2 

-- Tick (115634500) -- ISN: (76610) : L from (0x7fffffffecd8) -- of Size = (4)-- PC: (0x400d0a) 

 -- vaddr (0x7fffffffecd8) -- paddr (0xc5cd8) 

-- ReadReq [c5cd8:c5cdb] Hit -- Blk -> state: f (M) valid: 1 writable: 1 readable: 1 dirty: 1 | tag: 0x18 set: 0x173 way: 0 Latency: 2 

-- PC: (0x400d71) 

-- PC: (0x400d71) 

-- PC: (0x400d71) 

-- PC: (0x400d71) 

-- PC: (0x400d71) 

-- PC: (0x400d71) 

-- PC: (0x400d71) 

-- PC: (0x400d71) 

-- PC: (0x400d71) 

-- PC: (0x400d71) 

-- PC: (0x400d71) 

-- PC: (0x400d71) 

-- PC: (0x400d76) 

-- PC: (0x400d71) 

-- PC: (0x400d76) 

-- PC: (0x400d71) 

-- PC: (0x400d76) 

-- PC: (0x400d76) 

-- PC: (0x400d76) 

-- PC: (0x400d76) 

-- PC: (0x400d76) 

-- PC: (0x400d76) 

-- PC: (0x400d76) 

-- PC: (0x400d76) 

-- PC: (0x400d79) 

-- PC: (0x400d79) 

-- PC: (0x400d79) 

-- PC: (0x400d79) 

-- PC: (0x400d79) 

-- PC: (0x400d79) 

-- PC: (0x400d7c) 

-- PC: (0x400d7c) 

-- PC: (0x400d7c) 

-- PC: (0x400d7c) 

-- PC: (0x400d7c) 

-- PC: (0x400d7c) 

-- PC: (0x400d7c) 

-- PC: (0x400d7c) 

-- PC: (0x400d7c) 

-- ReadReq [d80:dbf] IF Hit -- Blk -> state: 7 (E) valid: 1 writable: 1 readable: 1 dirty: 0 | tag: 0x3 set: 0x6 way: 0 Latency: 2 

-- PC: (0x400d7c) 

-- PC: (0x400d7c) 

-- PC: (0x400d7c) 

-- PC: (0x400d7c) 

-- PC: (0x400d81) 

-- PC: (0x400d81) 

-- PC: (0x400d81) 

-- PC: (0x400d81) 

-- PC: (0x400d81) 

-- PC: (0x400d81) 

-- PC: (0x400d81) 

-- PC: (0x400d81) 

-- PC: (0x400d81) 

-- PC: (0x400d81) 

-- PC: (0x400d81) 

-- PC: (0x400d81) 

-- PC: (0x400d81) 

-- PC: (0x400d81) 

-- PC: (0x400d81) 

-- PC: (0x400d81) 

-- PC: (0x400d86) 

-- PC: (0x400d81) 

-- PC: (0x400d86) 

-- PC: (0x400d81) 

-- PC: (0x400d86) 

-- PC: (0x400d86) 

-- PC: (0x400d86) 

-- PC: (0x400d86) 

-- PC: (0x400d86) 

-- PC: (0x400d86) 

-- PC: (0x400d86) 

-- PC: (0x400d86) 

-- PC: (0x400d89) 

-- PC: (0x400d89) 

-- PC: (0x400d89) 

-- PC: (0x400d89) 

-- PC: (0x400d89) 

-- PC: (0x400d89) 

-- PC: (0x400d8c) 

-- PC: (0x400d8c) 

-- PC: (0x400d8c) 

-- PC: (0x400d07) 

-- PC: (0x400d8c) 

-- PC: (0x400d8c) 

-- PC: (0x400d8c) 

-- PC: (0x400d8c) 

-- PC: (0x400d8c) 

-- PC: (0x400d8c) 

-- PC: (0x400d8c) 

-- PC: (0x400d8c) 

-- PC: (0x400d8c) 

-- PC: (0x400d8c) 

-- Tick (115636500) -- ISN: (76609) : S -> (0x1) at (0x7fffffffecd8) -- Size = (4)-- PC: (0x400d07) 

 -- vaddr (0x7fffffffecd8) -- paddr (0xc5cd8) 

-- PC: (0x400d0a) 

-- PC: (0x400d07) 

-- PC: (0x400d8c) 

-- PC: (0x400d8c) 

-- PC: (0x400d8c) 

-- PC: (0x400d07) 

-- PC: (0x400d0a) 

-- Sqsh -> ISN (76609)

-- PC: (0x400d0a) 

-- PC: (0x400d0a) 

-- ReadReq [d00:d3f] IF Hit -- Blk -> state: 7 (E) valid: 1 writable: 1 readable: 1 dirty: 0 | tag: 0x3 set: 0x4 way: 0 Latency: 2 

-- PC: (0x400d0a) 

-- PC: (0x400d0a) 

-- PC: (0x400d0a) 

-- PC: (0x400d0a) 

-- PC: (0x400d0a) 

-- PC: (0x400d0d) 

-- PC: (0x400d0d) 

-- PC: (0x400d0d) 

-- PC: (0x400d0d) 

-- PC: (0x400d0d) 

-- PC: (0x400d0d) 

-- PC: (0x400d0d) 

-- PC: (0x400d0d) 

-- PC: (0x400d10) 

-- PC: (0x400d10) 

-- PC: (0x400d10) 

-- PC: (0x400d10) 

-- PC: (0x400d10) 

-- PC: (0x400d10) 

-- PC: (0x400d10) 

-- PC: (0x400d10) 

-- PC: (0x400d10) 

-- PC: (0x400d10) 

-- PC: (0x400d10) 

-- PC: (0x400d12) 

-- PC: (0x400d10) 

-- PC: (0x400d12) 

-- PC: (0x400d10) 

-- PC: (0x400d12) 

-- PC: (0x400d12) 

-- PC: (0x400d12) 

-- PC: (0x400d12) 

-- PC: (0x400d12) 

-- PC: (0x400d12) 

-- PC: (0x400d15) 

-- PC: (0x400d15) 

-- PC: (0x400d15) 

-- PC: (0x400d15) 

-- PC: (0x400d15) 

-- PC: (0x400d15) 

-- PC: (0x400d18) 

-- PC: (0x400d18) 

-- PC: (0x400d18) 

-- PC: (0x400b76) 

-- PC: (0x400b76) 

-- PC: (0x400b79) 

-- PC: (0x400b79) 

-- PC: (0x400b79) 

-- PC: (0x400b79) 

-- PC: (0x400d18) 

-- PC: (0x400d18) 

-- PC: (0x400d18) 

-- PC: (0x400d18) 

-- PC: (0x400d18) 

-- PC: (0x400d18) 

-- PC: (0x400d18) 

-- PC: (0x400d1f) 

-- PC: (0x400d1f) 

-- PC: (0x400d1f) 

-- PC: (0x400d1f) 

-- PC: (0x400d1f) 

-- PC: (0x400d1f) 

-- PC: (0x400d1f) 

-- PC: (0x400d1f) 

-- PC: (0x400d1f) 

-- PC: (0x400d1f) 

-- PC: (0x400d1f) 

-- PC: (0x400d1f) 

-- PC: (0x400d1f) 

-- PC: (0x400d1f) 

-- PC: (0x400d1f) 

-- PC: (0x400d1f) 

-- PC: (0x400d1f) 

-- PC: (0x400d1f) 

-- PC: (0x400d24) 

-- PC: (0x400d1f) 

-- PC: (0x400d24) 

-- PC: (0x400d1f) 

-- PC: (0x400d24) 

-- PC: (0x400d24) 

-- PC: (0x400d24) 

-- PC: (0x400d24) 

-- PC: (0x400d24) 

-- PC: (0x400d24) 

-- PC: (0x400d28) 

-- PC: (0x400d28) 

-- PC: (0x400d28) 

-- PC: (0x400d28) 

-- PC: (0x400d28) 

-- PC: (0x400d28) 

-- PC: (0x400d28) 

-- PC: (0x400d28) 

-- PC: (0x400d2c) 

-- PC: (0x400d2c) 

-- PC: (0x400d2c) 

-- PC: (0x400d2c) 

-- PC: (0x400d2c) 

-- PC: (0x400d2c) 

-- PC: (0x400d30) 

-- PC: (0x400d30) 

-- PC: (0x400d30) 

-- PC: (0x400d30) 

-- PC: (0x400d30) 

-- PC: (0x400d30) 

-- PC: (0x400d30) 

-- PC: (0x400d33) 

-- PC: (0x400d33) 

-- PC: (0x400d33) 

-- PC: (0x400d33) 

-- PC: (0x400d33) 

-- PC: (0x400d33) 

-- PC: (0x400d38) 

-- PC: (0x400d38) 

-- PC: (0x400d38) 

-- PC: (0x400d38) 

-- PC: (0x400d38) 

-- PC: (0x400d38) 

-- PC: (0x400d38) 

-- PC: (0x400d38) 

-- PC: (0x400d38) 

-- PC: (0x400d38) 

-- PC: (0x400d38) 

-- PC: (0x400d38) 

-- PC: (0x400d38) 

-- PC: (0x400d38) 

-- PC: (0x400d38) 

-- PC: (0x400d38) 

-- PC: (0x400d38) 

-- PC: (0x400d38) 

-- PC: (0x400d38) 

-- PC: (0x400d3d) 

-- PC: (0x400d38) 

-- PC: (0x400d3d) 

-- PC: (0x400d38) 

-- PC: (0x400d3d) 

-- PC: (0x400d3d) 

-- PC: (0x400d3d) 

-- PC: (0x400d3d) 

-- PC: (0x400d3d) 

-- PC: (0x400d3d) 

-- PC: (0x400d40) 

-- PC: (0x400d40) 

-- PC: (0x400d40) 

-- PC: (0x400d40) 

-- PC: (0x400d40) 

-- PC: (0x400d40) 

-- ReadReq [d40:d7f] IF Hit -- Blk -> state: 7 (E) valid: 1 writable: 1 readable: 1 dirty: 0 | tag: 0x3 set: 0x5 way: 0 Latency: 2 

-- PC: (0x400b87) 

-- PC: (0x400b79) 

-- PC: (0x400b79) 

-- PC: (0x400d0a) 

-- Tick (115641000) -- ISN: (76595) : L from (0x6bc3c0) -- of Size = (1)-- PC: (0x400b87) 

 -- vaddr (0x6bc3c0) -- paddr (0xbc3c0) 

-- ReadReq [bc3c0:bc3c0] Miss --  Latency: 502 

-- PC: (0x400d0a) 

-- PC: (0x400b79) 

-- PC: (0x400b79) 

-- PC: (0x400b79) 

-- PC: (0x400b79) 

-- PC: (0x400b7d) 

-- PC: (0x400b7d) 

-- PC: (0x400d40) 

-- PC: (0x400d40) 

-- PC: (0x400d40) 

-- PC: (0x400d40) 

-- PC: (0x400d43) 

-- PC: (0x400d43) 

-- PC: (0x400d43) 

-- PC: (0x400d43) 

-- PC: (0x400d43) 

-- PC: (0x400d43) 

-- PC: (0x400d43) 

-- PC: (0x400d43) 

-- PC: (0x400d43) 

-- PC: (0x400d43) 

-- PC: (0x400d49) 

-- PC: (0x400d49) 

-- PC: (0x400d49) 

-- PC: (0x400d49) 

-- PC: (0x400d49) 

-- PC: (0x400d49) 

-- PC: (0x400d49) 

-- PC: (0x400d49) 

-- PC: (0x400d4f) 

-- PC: (0x400d4f) 

-- PC: (0x400d4f) 

-- PC: (0x400d4f) 

-- PC: (0x400d4f) 

-- PC: (0x400d4f) 

-- PC: (0x400d4f) 

-- PC: (0x400d4f) 

-- PC: (0x400d4f) 

-- PC: (0x400d4f) 

-- PC: (0x400d55) 

-- PC: (0x400d55) 

-- PC: (0x400d55) 

-- PC: (0x400d55) 

-- PC: (0x400d55) 

-- PC: (0x400d55) 

-- PC: (0x400d55) 

-- PC: (0x400d55) 

-- PC: (0x400d55) 

-- PC: (0x400d55) 

-- Tick (115641500) -- ISN: (76669) : L from (0x7fffffffecd8) -- of Size = (4)-- PC: (0x400d0a) 

 -- vaddr (0x7fffffffecd8) -- paddr (0xc5cd8) 

-- PC: (0x400b7d) 

-- PC: (0x400b7d) 

-- PC: (0x400b80) 

-- PC: (0x400b80) 

-- PC: (0x400b80) 

-- PC: (0x400b80) 

-- PC: (0x400b80) 

-- PC: (0x400b80) 

-- PC: (0x400b87) 

-- PC: (0x400b87) 

-- PC: (0x400d55) 

-- PC: (0x400d55) 

-- PC: (0x400d55) 

-- PC: (0x400d55) 

-- PC: (0x400d5b) 

-- PC: (0x400d5b) 

-- PC: (0x400d5b) 

-- PC: (0x400d5b) 

-- PC: (0x400d5b) 

-- PC: (0x400d5b) 

-- PC: (0x400d5b) 

-- PC: (0x400d5b) 

-- PC: (0x400d5b) 

-- PC: (0x400d5b) 

-- PC: (0x400d61) 

-- PC: (0x400d61) 

-- PC: (0x400d61) 

-- PC: (0x400d61) 

-- PC: (0x400d61) 

-- PC: (0x400d61) 

-- PC: (0x400d61) 

-- PC: (0x400d61) 

-- PC: (0x400d67) 

-- PC: (0x400d67) 

-- PC: (0x400d67) 

-- PC: (0x400d67) 

-- PC: (0x400d67) 

-- PC: (0x400d67) 

-- PC: (0x400d67) 

-- PC: (0x400d67) 

-- PC: (0x400d6c) 

-- PC: (0x400d6c) 

-- PC: (0x400d6c) 

-- PC: (0x400d6c) 

-- PC: (0x400d6c) 

-- PC: (0x400d6c) 

-- PC: (0x400d6c) 

-- PC: (0x400d6c) 

-- PC: (0x400d71) 

-- PC: (0x400d71) 

-- PC: (0x400d71) 

-- PC: (0x400d71) 

-- PC: (0x400d71) 

-- PC: (0x400d71) 

-- PC: (0x400d71) 

-- PC: (0x400d71) 

-- PC: (0x400d71) 

-- PC: (0x400d71) 

-- PC: (0x400d71) 

-- PC: (0x400d71) 

-- PC: (0x400d71) 

-- PC: (0x400d71) 

-- PC: (0x400d71) 

-- PC: (0x400d71) 

-- PC: (0x400d71) 

-- PC: (0x400d71) 

-- PC: (0x400d71) 

-- PC: (0x400d71) 

-- PC: (0x400d76) 

-- PC: (0x400d71) 

-- PC: (0x400d76) 

-- PC: (0x400d71) 

-- PC: (0x400d76) 

-- PC: (0x400d76) 

-- PC: (0x400d76) 

-- PC: (0x400d76) 

-- PC: (0x400d76) 

-- PC: (0x400d76) 

-- PC: (0x400d76) 

-- PC: (0x400d76) 

-- PC: (0x400d79) 

-- PC: (0x400d79) 

-- PC: (0x400d79) 

-- PC: (0x400d79) 

-- PC: (0x400d79) 

-- PC: (0x400d79) 

-- PC: (0x400d7c) 

-- PC: (0x400d7c) 

-- PC: (0x400d7c) 

-- PC: (0x400d7c) 

-- PC: (0x400d7c) 

-- PC: (0x400d7c) 

-- PC: (0x400d7c) 

-- PC: (0x400d7c) 

-- PC: (0x400d7c) 

-- ReadReq [d80:dbf] IF Hit -- Blk -> state: 7 (E) valid: 1 writable: 1 readable: 1 dirty: 0 | tag: 0x3 set: 0x6 way: 0 Latency: 2 

-- PC: (0x400d7c) 

-- PC: (0x400d7c) 

-- PC: (0x400d7c) 

-- PC: (0x400d7c) 

-- PC: (0x400d81) 

-- PC: (0x400d81) 

-- PC: (0x400d81) 

-- PC: (0x400d81) 

-- PC: (0x400d81) 

-- PC: (0x400d81) 

-- PC: (0x400d81) 

-- PC: (0x400d81) 

-- PC: (0x400d81) 

-- PC: (0x400d81) 

-- PC: (0x400d81) 

-- PC: (0x400d81) 

-- PC: (0x400d81) 

-- PC: (0x400d81) 

-- PC: (0x400d81) 

-- PC: (0x400d81) 

-- PC: (0x400d86) 

-- PC: (0x400d81) 

-- PC: (0x400d86) 

-- PC: (0x400d81) 

-- PC: (0x400d86) 

-- PC: (0x400d86) 

-- PC: (0x400d86) 

-- PC: (0x400d86) 

-- PC: (0x400d86) 

-- PC: (0x400d86) 

-- PC: (0x400d86) 

-- PC: (0x400d86) 

-- PC: (0x400d89) 

-- PC: (0x400d89) 

-- PC: (0x400d89) 

-- PC: (0x400d89) 

-- PC: (0x400d89) 

-- PC: (0x400d89) 

-- PC: (0x400d8c) 

-- PC: (0x400d8c) 

-- PC: (0x400d8c) 

-- PC: (0x400d10) 

-- PC: (0x400cf2) 

-- PC: (0x400cf2) 

-- PC: (0x400cf2) 

-- PC: (0x400cf2) 

-- Sqsh -> ISN (76674)

-- PC: (0x400cf2) 

-- PC: (0x400cf2) 

-- ReadReq [cc0:cff] IF Hit -- Blk -> state: 7 (E) valid: 1 writable: 1 readable: 1 dirty: 0 | tag: 0x3 set: 0x3 way: 0 Latency: 2 

-- PC: (0x400cf2) 

-- PC: (0x400cf2) 

-- PC: (0x400cf2) 

-- PC: (0x400cf2) 

-- PC: (0x400cf2) 

-- PC: (0x400cf5) 

-- PC: (0x400cf5) 

-- PC: (0x400cf5) 

-- PC: (0x400cf5) 

-- PC: (0x400cf5) 

-- PC: (0x400cf5) 

-- PC: (0x400cf5) 

-- PC: (0x400cf5) 

-- PC: (0x400cfa) 

-- PC: (0x400cfa) 

-- PC: (0x400cfa) 

-- PC: (0x400cfa) 

-- PC: (0x400cfa) 

-- PC: (0x400cfa) 

-- PC: (0x400cfc) 

-- PC: (0x400cfc) 

-- PC: (0x400cfc) 

-- PC: (0x400cfc) 

-- PC: (0x400cfc) 

-- PC: (0x400cfc) 

-- PC: (0x400cfc) 

-- PC: (0x400cfc) 

-- PC: (0x400cfc) 

-- ReadReq [d00:d3f] IF Hit -- Blk -> state: 7 (E) valid: 1 writable: 1 readable: 1 dirty: 0 | tag: 0x3 set: 0x4 way: 0 Latency: 2 

-- PC: (0x400cfc) 

-- PC: (0x400cfc) 

-- PC: (0x400cfc) 

-- PC: (0x400cfc) 

-- PC: (0x400cfc) 

-- PC: (0x400cfc) 

-- PC: (0x400cfc) 

-- PC: (0x400cfc) 

-- PC: (0x400cfc) 

-- PC: (0x400cfc) 

-- PC: (0x400cfc) 

-- PC: (0x400cfc) 

-- PC: (0x400cfc) 

-- PC: (0x400cfc) 

-- PC: (0x400d01) 

-- PC: (0x400cfc) 

-- PC: (0x400d01) 

-- PC: (0x400cfc) 

-- PC: (0x400d01) 

-- PC: (0x400d01) 

-- PC: (0x400d01) 

-- PC: (0x400d01) 

-- PC: (0x400d01) 

-- PC: (0x400d01) 

-- PC: (0x400d04) 

-- PC: (0x400d04) 

-- PC: (0x400d04) 

-- PC: (0x400d04) 

-- PC: (0x400d04) 

-- PC: (0x400d04) 

-- PC: (0x400d04) 

-- PC: (0x400d04) 

-- PC: (0x400d07) 

-- PC: (0x400d07) 

-- PC: (0x400d07) 

-- PC: (0x400d07) 

-- PC: (0x400d07) 

-- PC: (0x400d07) 

-- PC: (0x400d07) 

-- PC: (0x400d07) 

-- PC: (0x400d07) 

-- PC: (0x400d07) 

-- PC: (0x400d07) 

-- PC: (0x400d0a) 

-- PC: (0x400d0a) 

-- PC: (0x400d0a) 

-- PC: (0x400d0a) 

-- PC: (0x400d0a) 

-- PC: (0x400d0a) 

-- PC: (0x400d0d) 

-- PC: (0x400d0d) 

-- PC: (0x400d0d) 

-- PC: (0x400d0d) 

-- PC: (0x400d0d) 

-- PC: (0x400d0d) 

-- PC: (0x400d0d) 

-- PC: (0x400d0d) 

-- PC: (0x400d10) 

-- PC: (0x400d10) 

-- PC: (0x400d10) 

-- PC: (0x400d10) 

-- PC: (0x400d10) 

-- PC: (0x400d10) 

-- PC: (0x400d10) 

-- PC: (0x400d10) 

-- PC: (0x400d10) 

-- PC: (0x400d10) 

-- PC: (0x400d10) 

-- PC: (0x400d12) 

-- PC: (0x400d10) 

-- PC: (0x400d12) 

-- PC: (0x400d10) 

-- PC: (0x400d12) 

-- PC: (0x400d12) 

-- PC: (0x400d12) 

-- PC: (0x400d12) 

-- PC: (0x400d12) 

-- PC: (0x400d12) 

-- PC: (0x400d15) 

-- PC: (0x400d15) 

-- PC: (0x400d15) 

-- PC: (0x400d15) 

-- PC: (0x400d15) 

-- PC: (0x400d15) 

-- PC: (0x400d15) 

-- PC: (0x400d15) 

-- PC: (0x400d15) 

-- PC: (0x400d18) 

-- PC: (0x400d18) 

-- PC: (0x400d18) 

-- PC: (0x400d18) 

-- PC: (0x400d18) 

-- PC: (0x400d18) 

-- PC: (0x400d18) 

-- PC: (0x400d1f) 

-- PC: (0x400d1f) 

-- PC: (0x400d1f) 

-- PC: (0x400d1f) 

-- PC: (0x400d1f) 

-- PC: (0x400d1f) 

-- PC: (0x400d1f) 

-- PC: (0x400d1f) 

-- PC: (0x400d1f) 

-- PC: (0x400d1f) 

-- PC: (0x400d1f) 

-- PC: (0x400d1f) 

-- PC: (0x400d1f) 

-- PC: (0x400d1f) 

-- PC: (0x400d1f) 

-- PC: (0x400d1f) 

-- PC: (0x400d1f) 

-- PC: (0x400d1f) 

-- PC: (0x400d24) 

-- PC: (0x400d1f) 

-- PC: (0x400d24) 

-- PC: (0x400d1f) 

-- PC: (0x400d24) 

-- PC: (0x400d24) 

-- PC: (0x400d24) 

-- PC: (0x400cf2) 

-- PC: (0x400cf2) 

-- PC: (0x400d24) 

-- PC: (0x400d24) 

-- PC: (0x400d24) 

-- PC: (0x400d24) 

-- PC: (0x400d24) 

-- PC: (0x400d24) 

-- PC: (0x400d28) 

-- PC: (0x400d28) 

-- PC: (0x400d28) 

-- PC: (0x400d28) 

-- PC: (0x400d28) 

-- PC: (0x400d2c) 

-- PC: (0x400d2c) 

-- PC: (0x400d2c) 

-- PC: (0x400d2c) 

-- PC: (0x400d2c) 

-- PC: (0x400d2c) 

-- PC: (0x400d30) 

-- PC: (0x400d30) 

-- PC: (0x400d30) 

-- PC: (0x400d30) 

-- PC: (0x400d30) 

-- PC: (0x400d30) 

-- PC: (0x400d30) 

-- PC: (0x400d33) 

-- PC: (0x400d33) 

-- PC: (0x400d33) 

-- PC: (0x400d33) 

-- PC: (0x400d33) 

-- PC: (0x400d33) 

-- PC: (0x400d38) 

-- PC: (0x400d38) 

-- PC: (0x400d38) 

-- PC: (0x400d38) 

-- PC: (0x400d38) 

-- PC: (0x400d38) 

-- PC: (0x400d38) 

-- PC: (0x400d38) 

-- PC: (0x400d38) 

-- Tick (115648000) -- ISN: (76726) : L from (0x7fffffffecd8) -- of Size = (4)-- PC: (0x400cf2) 

 -- vaddr (0x7fffffffecd8) -- paddr (0xc5cd8) 

-- PC: (0x400d38) 

-- PC: (0x400d38) 

-- PC: (0x400d38) 

-- PC: (0x400d38) 

-- PC: (0x400d38) 

-- PC: (0x400d38) 

-- PC: (0x400d38) 

-- PC: (0x400d38) 

-- PC: (0x400d38) 

-- PC: (0x400d38) 

-- PC: (0x400d3d) 

-- PC: (0x400d38) 

-- PC: (0x400d3d) 

-- PC: (0x400d38) 

-- PC: (0x400d3d) 

-- PC: (0x400d3d) 

-- PC: (0x400d3d) 

-- PC: (0x400d3d) 

-- PC: (0x400d3d) 

-- PC: (0x400d3d) 

-- PC: (0x400d40) 

-- PC: (0x400d40) 

-- PC: (0x400d40) 

-- PC: (0x400d40) 

-- PC: (0x400d40) 

-- PC: (0x400d40) 

-- ReadReq [d40:d7f] IF Hit -- Blk -> state: 7 (E) valid: 1 writable: 1 readable: 1 dirty: 0 | tag: 0x3 set: 0x5 way: 0 Latency: 2 

-- PC: (0x400cfc) 

-- PC: (0x400cfc) 

-- PC: (0x400d01) 

-- PC: (0x400d01) 

-- PC: (0x400d07) 

-- PC: (0x400d07) 

-- PC: (0x400d0a) 

-- Tick (115649000) -- ISN: (76734) : L from (0x7fffffffecd8) -- of Size = (4)-- PC: (0x400d01) 

 -- vaddr (0x7fffffffecd8) -- paddr (0xc5cd8) 

-- PC: (0x400cfc) 

-- PC: (0x400d40) 

-- PC: (0x400d40) 

-- PC: (0x400d40) 

-- PC: (0x400d40) 

-- PC: (0x400d43) 

-- PC: (0x400d43) 

-- PC: (0x400d43) 

-- PC: (0x400d43) 

-- PC: (0x400d43) 

-- PC: (0x400d43) 

-- PC: (0x400d43) 

-- PC: (0x400d43) 

-- PC: (0x400d43) 

-- PC: (0x400d43) 

-- PC: (0x400d49) 

-- PC: (0x400d49) 

-- PC: (0x400d49) 

-- PC: (0x400d49) 

-- PC: (0x400d49) 

-- PC: (0x400d49) 

-- PC: (0x400d49) 

-- PC: (0x400d49) 

-- PC: (0x400d4f) 

-- PC: (0x400d4f) 

-- PC: (0x400d4f) 

-- PC: (0x400d4f) 

-- PC: (0x400d4f) 

-- PC: (0x400d4f) 

-- PC: (0x400d4f) 

-- PC: (0x400d4f) 

-- PC: (0x400d4f) 

-- PC: (0x400d4f) 

-- PC: (0x400d55) 

-- PC: (0x400d55) 

-- PC: (0x400d55) 

-- PC: (0x400d55) 

-- PC: (0x400d55) 

-- PC: (0x400d55) 

-- PC: (0x400d55) 

-- PC: (0x400d55) 

-- PC: (0x400d55) 

-- PC: (0x400d55) 

-- Tick (115649500) -- ISN: (76731) : S -> (0x1) at (0x7fffffffecc8) -- Size = (8)-- PC: (0x400cfc) 

 -- vaddr (0x7fffffffecc8) -- paddr (0xc5cc8) 

-- PC: (0x400d55) 

-- PC: (0x400d55) 

-- PC: (0x400d55) 

-- PC: (0x400d55) 

-- PC: (0x400d5b) 

-- PC: (0x400d5b) 

-- PC: (0x400d5b) 

-- PC: (0x400d5b) 

-- PC: (0x400d5b) 

-- PC: (0x400d5b) 

-- PC: (0x400d5b) 

-- PC: (0x400d5b) 

-- PC: (0x400d5b) 

-- PC: (0x400d5b) 

-- PC: (0x400d61) 

-- PC: (0x400d61) 

-- PC: (0x400d61) 

-- PC: (0x400d61) 

-- PC: (0x400d61) 

-- PC: (0x400d61) 

-- PC: (0x400d61) 

-- PC: (0x400d61) 

-- PC: (0x400d67) 

-- PC: (0x400d67) 

-- PC: (0x400d67) 

-- PC: (0x400d67) 

-- PC: (0x400d67) 

-- PC: (0x400d67) 

-- PC: (0x400d67) 

-- PC: (0x400d67) 

-- PC: (0x400d6c) 

-- PC: (0x400d6c) 

-- PC: (0x400d6c) 

-- PC: (0x400d6c) 

-- PC: (0x400d6c) 

-- PC: (0x400d6c) 

-- PC: (0x400d6c) 

-- PC: (0x400d6c) 

-- PC: (0x400d71) 

-- PC: (0x400d71) 

-- PC: (0x400d71) 

-- PC: (0x400d71) 

-- PC: (0x400d71) 

-- PC: (0x400d71) 

-- PC: (0x400d71) 

-- PC: (0x400d71) 

-- PC: (0x400d07) 

-- PC: (0x400cfc) 

-- PC: (0x400b4d) 

-- PC: (0x400b4d) 

-- PC: (0x400b4d) 

-- PC: (0x400b4d) 

-- Sqsh -> ISN (76733)

-- PC: (0x400b4d) 

-- PC: (0x400b4d) 

-- ReadReq [b40:b7f] IF Hit -- Blk -> state: 7 (E) valid: 1 writable: 1 readable: 1 dirty: 0 | tag: 0x2 set: 0xd way: 0 Latency: 2 

-- PC: (0x400b4d) 

-- PC: (0x400b4d) 

-- PC: (0x400b4d) 

-- PC: (0x400b4d) 

-- PC: (0x400b4d) 

-- PC: (0x400b4d) 

-- PC: (0x400b4d) 

-- PC: (0x400b4e) 

-- PC: (0x400b4e) 

-- PC: (0x400b4e) 

-- PC: (0x400b4e) 

-- PC: (0x400b4e) 

-- PC: (0x400b4e) 

-- PC: (0x400b4e) 

-- PC: (0x400b4e) 

-- PC: (0x400b51) 

-- PC: (0x400b51) 

-- PC: (0x400b51) 

-- PC: (0x400b51) 

-- PC: (0x400b51) 

-- PC: (0x400b51) 

-- PC: (0x400b54) 

-- PC: (0x400b54) 

-- PC: (0x400b54) 

-- PC: (0x400b54) 

-- PC: (0x400b54) 

-- PC: (0x400b54) 

-- PC: (0x400b57) 

-- PC: (0x400b57) 

-- PC: (0x400b57) 

-- PC: (0x400b57) 

-- PC: (0x400b57) 

-- PC: (0x400b57) 

-- PC: (0x400b57) 

-- PC: (0x400b57) 

-- PC: (0x400b57) 

-- PC: (0x400b57) 

-- PC: (0x400b5d) 

-- PC: (0x400b5d) 

-- PC: (0x400b5d) 

-- PC: (0x400b5d) 

-- PC: (0x400b5d) 

-- PC: (0x400b5d) 

-- PC: (0x400b5d) 

-- PC: (0x400b5d) 

-- PC: (0x400b5d) 

-- PC: (0x400b5d) 

-- PC: (0x400b5d) 

-- PC: (0x400b5d) 

-- PC: (0x400b60) 

-- PC: (0x400b60) 

-- PC: (0x400b60) 

-- PC: (0x400b60) 

-- PC: (0x400b60) 

-- PC: (0x400b60) 

-- PC: (0x400b60) 

-- PC: (0x400b60) 

-- PC: (0x400b60) 

-- PC: (0x400b60) 

-- PC: (0x400b60) 

-- PC: (0x400b62) 

-- PC: (0x400b60) 

-- PC: (0x400b62) 

-- PC: (0x400b60) 

-- PC: (0x400b62) 

-- PC: (0x400b62) 

-- PC: (0x400b62) 

-- PC: (0x400b62) 

-- PC: (0x400b62) 

-- PC: (0x400b62) 

-- PC: (0x400b65) 

-- PC: (0x400b65) 

-- PC: (0x400b65) 

-- PC: (0x400b65) 

-- PC: (0x400b65) 

-- PC: (0x400b65) 

-- PC: (0x400b67) 

-- PC: (0x400b67) 

-- PC: (0x400b67) 

-- PC: (0x400b67) 

-- PC: (0x400b67) 

-- PC: (0x400b67) 

-- PC: (0x400b67) 

-- PC: (0x400b67) 

-- PC: (0x400b6f) 

-- PC: (0x400b6f) 

-- PC: (0x400b6f) 

-- PC: (0x400b6f) 

-- PC: (0x400b6f) 

-- PC: (0x400b6f) 

-- PC: (0x400b6f) 

-- PC: (0x400b6f) 

-- PC: (0x400b6f) 

-- PC: (0x400b6f) 

-- PC: (0x400b6f) 

-- PC: (0x400b6f) 

-- PC: (0x400b6f) 

-- PC: (0x400b6f) 

-- PC: (0x400b76) 

-- PC: (0x400b76) 

-- PC: (0x400b76) 

-- PC: (0x400b76) 

-- PC: (0x400b76) 

-- PC: (0x400b76) 

-- PC: (0x400b76) 

-- PC: (0x400b76) 

-- PC: (0x400b79) 

-- PC: (0x400b79) 

-- PC: (0x400b79) 

-- PC: (0x400b79) 

-- PC: (0x400b79) 

-- PC: (0x400b79) 

-- PC: (0x400b79) 

-- PC: (0x400b79) 

-- PC: (0x400b79) 

-- PC: (0x400b79) 

-- PC: (0x400b79) 

-- PC: (0x400b79) 

-- PC: (0x400b7d) 

-- PC: (0x400b7d) 

-- PC: (0x400b7d) 

-- PC: (0x400b7d) 

-- PC: (0x400b7d) 

-- PC: (0x400b7d) 

-- PC: (0x400b80) 

-- PC: (0x400b80) 

-- PC: (0x400b80) 

-- PC: (0x400b80) 

-- PC: (0x400b80) 

-- PC: (0x400b80) 

-- ReadReq [b80:bbf] IF Hit -- Blk -> state: 7 (E) valid: 1 writable: 1 readable: 1 dirty: 0 | tag: 0x2 set: 0xe way: 0 Latency: 2 

-- PC: (0x400b80) 

-- PC: (0x400b80) 

-- PC: (0x400b80) 

-- PC: (0x400b80) 

-- PC: (0x400b80) 

-- PC: (0x400b80) 

-- PC: (0x400b87) 

-- PC: (0x400b87) 

-- PC: (0x400b87) 

-- PC: (0x400b87) 

-- PC: (0x400b87) 

-- PC: (0x400b87) 

-- PC: (0x400b87) 

-- PC: (0x400b87) 

-- PC: (0x400b87) 

-- PC: (0x400b87) 

-- PC: (0x400b8b) 

-- PC: (0x400b8b) 

-- PC: (0x400b8b) 

-- PC: (0x400b8b) 

-- PC: (0x400b8b) 

-- PC: (0x400b8b) 

-- PC: (0x400b8b) 

-- PC: (0x400b8b) 

-- PC: (0x400b8b) 

-- PC: (0x400b8b) 

-- PC: (0x400b91) 

-- PC: (0x400b91) 

-- PC: (0x400b91) 

-- PC: (0x400b91) 

-- PC: (0x400b91) 

-- PC: (0x400b91) 

-- PC: (0x400b92) 

-- PC: (0x400b92) 

-- PC: (0x400b92) 

-- PC: (0x400b92) 

-- PC: (0x400b92) 

-- PC: (0x400b92) 

-- PC: (0x400b92) 

-- PC: (0x400b92) 

-- PC: (0x400b92) 

-- PC: (0x400b92) 

-- PC: (0x400b92) 

-- PC: (0x400b92) 

-- PC: (0x400b92) 

-- PC: (0x400b92) 

-- PC: (0x400b93) 

-- PC: (0x400b93) 

-- PC: (0x400b93) 

-- PC: (0x400b93) 

-- PC: (0x400b93) 

-- PC: (0x400b93) 

-- PC: (0x400b93) 

-- PC: (0x400b93) 

-- PC: (0x400b93) 

-- PC: (0x400b93) 

-- PC: (0x400b93) 

-- PC: (0x400d01) 

-- PC: (0x400b93) 

-- PC: (0x400d01) 

-- PC: (0x400d01) 

-- PC: (0x400d01) 

-- PC: (0x400d01) 

-- PC: (0x400d01) 

-- ReadReq [d00:d3f] IF Hit -- Blk -> state: 7 (E) valid: 1 writable: 1 readable: 1 dirty: 0 | tag: 0x3 set: 0x4 way: 0 Latency: 2 

-- PC: (0x400d01) 

-- PC: (0x400d01) 

-- PC: (0x400d01) 

-- PC: (0x400d01) 

-- PC: (0x400d01) 

-- PC: (0x400d04) 

-- PC: (0x400d04) 

-- PC: (0x400d04) 

-- PC: (0x400d04) 

-- PC: (0x400d04) 

-- PC: (0x400d04) 

-- PC: (0x400d04) 

-- PC: (0x400d04) 

-- PC: (0x400d07) 

-- PC: (0x400d07) 

-- PC: (0x400d07) 

-- PC: (0x400d07) 

-- PC: (0x400d07) 

-- PC: (0x400d07) 

-- PC: (0x400d07) 

-- PC: (0x400d07) 

-- PC: (0x400d0a) 

-- PC: (0x400d0a) 

-- PC: (0x400d0a) 

-- PC: (0x400d0a) 

-- PC: (0x400d0a) 

-- PC: (0x400d0a) 

-- PC: (0x400d0d) 

-- PC: (0x400d0d) 

-- PC: (0x400d0d) 

-- PC: (0x400d0d) 

-- PC: (0x400d0d) 

-- PC: (0x400d0d) 

-- PC: (0x400d0d) 

-- PC: (0x400d0d) 

-- PC: (0x400d10) 

-- PC: (0x400d10) 

-- PC: (0x400d10) 

-- PC: (0x400d10) 

-- PC: (0x400d10) 

-- PC: (0x400d10) 

-- PC: (0x400d10) 

-- PC: (0x400d10) 

-- PC: (0x400d10) 

-- PC: (0x400d10) 

-- PC: (0x400d10) 

-- PC: (0x400d10) 

-- PC: (0x400d10) 

-- PC: (0x400d10) 

-- PC: (0x400d10) 

-- PC: (0x400cf2) 

-- PC: (0x400d10) 

-- PC: (0x400cf2) 

-- PC: (0x400d10) 

-- PC: (0x400cf2) 

-- PC: (0x400cf2) 

-- PC: (0x400cf2) 

-- PC: (0x400cf2) 

-- PC: (0x400cf2) 

-- ReadReq [cc0:cff] IF Hit -- Blk -> state: 7 (E) valid: 1 writable: 1 readable: 1 dirty: 0 | tag: 0x3 set: 0x3 way: 0 Latency: 2 

-- PC: (0x400cf2) 

-- PC: (0x400cf2) 

-- PC: (0x400cf2) 

-- PC: (0x400cf2) 

-- PC: (0x400cf2) 

-- PC: (0x400cf5) 

-- PC: (0x400cf5) 

-- PC: (0x400cf5) 

-- PC: (0x400cf5) 

-- PC: (0x400cf5) 

-- PC: (0x400cf5) 

-- PC: (0x400cf5) 

-- PC: (0x400cf5) 

-- PC: (0x400cfa) 

-- PC: (0x400cfa) 

-- PC: (0x400cfa) 

-- PC: (0x400cfa) 

-- PC: (0x400cfa) 

-- PC: (0x400cfa) 

-- PC: (0x400cfc) 

-- PC: (0x400cfc) 

-- PC: (0x400cfc) 

-- PC: (0x400cfc) 

-- PC: (0x400cfc) 

-- PC: (0x400cfc) 

-- PC: (0x400cfc) 

-- PC: (0x400cfc) 

-- PC: (0x400cfc) 

-- ReadReq [d00:d3f] IF Hit -- Blk -> state: 7 (E) valid: 1 writable: 1 readable: 1 dirty: 0 | tag: 0x3 set: 0x4 way: 0 Latency: 2 

-- PC: (0x400cfc) 

-- PC: (0x400cfc) 

-- PC: (0x400cfc) 

-- PC: (0x400cfc) 

-- PC: (0x400cfc) 

-- PC: (0x400cfc) 

-- PC: (0x400cfc) 

-- PC: (0x400cfc) 

-- PC: (0x400cfc) 

-- PC: (0x400cfc) 

-- PC: (0x400cfc) 

-- PC: (0x400cfc) 

-- PC: (0x400cfc) 

-- PC: (0x400cfc) 

-- PC: (0x400b4d) 

-- PC: (0x400cfc) 

-- PC: (0x400b4d) 

-- PC: (0x400cfc) 

-- PC: (0x400b4d) 

-- PC: (0x400b4d) 

-- PC: (0x400b4d) 

-- PC: (0x400b4d) 

-- PC: (0x400b4d) 

-- ReadReq [b40:b7f] IF Hit -- Blk -> state: 7 (E) valid: 1 writable: 1 readable: 1 dirty: 0 | tag: 0x2 set: 0xd way: 0 Latency: 2 

-- PC: (0x400b4d) 

-- PC: (0x400b4d) 

-- PC: (0x400b4d) 

-- PC: (0x400b4d) 

-- PC: (0x400b4d) 

-- PC: (0x400b4d) 

-- PC: (0x400b4d) 

-- PC: (0x400b4d) 

-- PC: (0x400b4d) 

-- PC: (0x400b4d) 

-- PC: (0x400b4d) 

-- PC: (0x400b4d) 

-- PC: (0x400b4d) 

-- PC: (0x400b4d) 

-- PC: (0x400b4d) 

-- PC: (0x400b4d) 

-- PC: (0x400b4d) 

-- PC: (0x400b4d) 

-- PC: (0x400b4d) 

-- PC: (0x400b4d) 

-- PC: (0x400b4d) 

-- PC: (0x400b4d) 

-- PC: (0x400b4d) 

-- PC: (0x400b4d) 

-- PC: (0x400b4d) 

-- PC: (0x400b4d) 

-- PC: (0x400b4d) 

-- PC: (0x400b4d) 

-- PC: (0x400b4d) 

-- PC: (0x400b4d) 

-- PC: (0x400b4d) 

-- PC: (0x400b4d) 

-- PC: (0x400b4d) 

-- PC: (0x400b4d) 

-- PC: (0x400b4d) 

-- PC: (0x400b4d) 

-- PC: (0x400b4d) 

-- PC: (0x400b4d) 

-- PC: (0x400b4d) 

-- PC: (0x400b4d) 

-- PC: (0x400b4d) 

-- PC: (0x400b4d) 

-- PC: (0x400b4d) 

-- PC: (0x400b4d) 

-- PC: (0x400b4d) 

-- PC: (0x400b4d) 

-- PC: (0x400b4d) 

-- PC: (0x400b4d) 

-- PC: (0x400b4d) 

-- PC: (0x400b4d) 

-- PC: (0x400b4d) 

-- PC: (0x400b4d) 

-- PC: (0x400b4d) 

-- PC: (0x400b4d) 

-- PC: (0x400b4d) 

-- PC: (0x400b4d) 

-- PC: (0x400b4d) 

-- PC: (0x400b4d) 

-- PC: (0x400b4d) 

-- PC: (0x400b4d) 

-- PC: (0x400b4d) 

-- PC: (0x400b4d) 

-- PC: (0x400b4d) 

-- PC: (0x400b4d) 

-- PC: (0x400b4d) 

-- PC: (0x400b4d) 

-- PC: (0x400b4d) 

-- PC: (0x400b4d) 

-- PC: (0x400b4d) 

-- PC: (0x400b4d) 

-- PC: (0x400b4d) 

-- PC: (0x400b4d) 

-- PC: (0x400b4d) 

-- PC: (0x400b4d) 

-- PC: (0x400b4d) 

-- PC: (0x400b4d) 

-- PC: (0x400b4d) 

-- PC: (0x400b4d) 

-- PC: (0x400b4d) 

-- PC: (0x400b4d) 

-- PC: (0x400b4d) 

-- PC: (0x400b4d) 

-- PC: (0x400b4d) 

-- PC: (0x400b4d) 

-- PC: (0x400b4d) 

-- PC: (0x400b4d) 

-- PC: (0x400b4d) 

-- PC: (0x400b4d) 

-- PC: (0x400b4d) 

-- PC: (0x400b4d) 

-- PC: (0x400b4d) 

-- PC: (0x400b4d) 

-- PC: (0x400b4d) 

-- PC: (0x400b4d) 

-- PC: (0x400b4d) 

-- PC: (0x400b4d) 

-- PC: (0x400b4d) 

-- PC: (0x400b4d) 

-- PC: (0x400b4d) 

-- PC: (0x400b4d) 

-- PC: (0x400b4d) 

-- PC: (0x400b4d) 

-- PC: (0x400b4d) 

-- PC: (0x400b4d) 

-- PC: (0x400b4d) 

-- PC: (0x400b4d) 

-- PC: (0x400b4d) 

-- PC: (0x400b4d) 

-- PC: (0x400b4d) 

-- PC: (0x400b4d) 

-- PC: (0x400b4d) 

-- PC: (0x400b4d) 

-- PC: (0x400b4d) 

-- PC: (0x400b4d) 

-- PC: (0x400b4d) 

-- PC: (0x400b4d) 

-- PC: (0x400b4d) 

-- PC: (0x400b4d) 

-- PC: (0x400b4d) 

-- PC: (0x400b4d) 

-- PC: (0x400b4d) 

-- PC: (0x400b4d) 

-- PC: (0x400b4d) 

-- PC: (0x400b4d) 

-- PC: (0x400b4d) 

-- PC: (0x400b4d) 

-- PC: (0x400b4d) 

-- PC: (0x400b4d) 

-- PC: (0x400b4d) 

-- PC: (0x400b4d) 

-- PC: (0x400b4d) 

-- PC: (0x400b4d) 

-- PC: (0x400b4d) 

-- PC: (0x400b4d) 

-- PC: (0x400b4d) 

-- PC: (0x400b4d) 

-- PC: (0x400b4d) 

-- PC: (0x400b4d) 

-- PC: (0x400b4d) 

-- PC: (0x400b4d) 

-- PC: (0x400b4d) 

-- PC: (0x400b4d) 

-- PC: (0x400b4d) 

-- PC: (0x400b4d) 

-- PC: (0x400b4d) 

-- PC: (0x400b4d) 

-- PC: (0x400b4d) 

-- PC: (0x400b4d) 

-- PC: (0x400b4d) 

-- PC: (0x400b4d) 

-- PC: (0x400b4d) 

-- PC: (0x400b4d) 

-- PC: (0x400b4d) 

-- PC: (0x400b4d) 

-- PC: (0x400b4d) 

-- PC: (0x400b4d) 

-- PC: (0x400b4d) 

-- PC: (0x400b4d) 

-- PC: (0x400b4d) 

-- PC: (0x400b4d) 

-- PC: (0x400b4d) 

-- PC: (0x400b4d) 

-- PC: (0x400b4d) 

-- PC: (0x400b4d) 

-- PC: (0x400b4d) 

-- PC: (0x400b4d) 

-- PC: (0x400b4d) 

-- PC: (0x400b4d) 

-- PC: (0x400b4d) 

-- PC: (0x400b4d) 

-- PC: (0x400b4d) 

-- PC: (0x400b4d) 

-- PC: (0x400b4d) 

-- PC: (0x400b4d) 

-- PC: (0x400b4d) 

-- PC: (0x400b4d) 

-- PC: (0x400b4d) 

-- PC: (0x400b4d) 

-- PC: (0x400b4d) 

-- PC: (0x400b4d) 

-- PC: (0x400b4d) 

-- PC: (0x400b4d) 

-- PC: (0x400b4d) 

-- PC: (0x400b4d) 

-- PC: (0x400b4d) 

-- PC: (0x400b4d) 

-- PC: (0x400b4d) 

-- PC: (0x400b4d) 

-- PC: (0x400b4d) 

-- PC: (0x400b4d) 

-- PC: (0x400b4d) 

-- PC: (0x400b4d) 

-- PC: (0x400b4d) 

-- PC: (0x400b4d) 

-- PC: (0x400b4d) 

-- PC: (0x400b4d) 

-- PC: (0x400b4d) 

-- PC: (0x400b4d) 

-- PC: (0x400b4d) 

-- PC: (0x400b4d) 

-- PC: (0x400b4d) 

-- PC: (0x400b4d) 

-- PC: (0x400b4d) 

-- PC: (0x400b4d) 

-- PC: (0x400b4d) 

-- PC: (0x400b4d) 

-- PC: (0x400b4d) 

-- PC: (0x400b4d) 

-- PC: (0x400b8b) 

-- PC: (0x400b4d) 

-- PC: (0x400b4d) 

-- PC: (0x400b4d) 

-- Tick (115693000) -- ISN: (76598) : S -> (0x0) at (0x6bb330) -- Size = (1)-- PC: (0x400b8b) 

 -- vaddr (0x6bb330) -- paddr (0xbb330) 

-- PC: (0x400b87) 

-- PC: (0x400b87) 

-- PC: (0x400b4d) 

-- PC: (0x400b4d) 

-- PC: (0x400b4d) 

-- PC: (0x400b87) 

-- PC: (0x400b87) 

-- PC: (0x400b8b) 

-- PC: (0x400b8b) 

-- PC: (0x400b8b) 

-- PC: (0x400b8b) 

-- PC: (0x400b4d) 

-- PC: (0x400b4d) 

-- PC: (0x400b4d) 

-- PC: (0x400b8b) 

-- PC: (0x400b8b) 

-- PC: (0x400b91) 

-- PC: (0x400b91) 

-- PC: (0x400b91) 

-- PC: (0x400b91) 

-- PC: (0x400b92) 

-- PC: (0x400b92) 

-- PC: (0x400b92) 

-- PC: (0x400b92) 

-- PC: (0x400b92) 

-- PC: (0x400b92) 

-- PC: (0x400b92) 

-- PC: (0x400b92) 

-- PC: (0x400b93) 

-- PC: (0x400b93) 

-- PC: (0x400b93) 

-- PC: (0x400b93) 

-- PC: (0x400b93) 

-- PC: (0x400b93) 

-- PC: (0x400b93) 

-- PC: (0x400b93) 

-- PC: (0x400d01) 

-- PC: (0x400d01) 

-- PC: (0x400b4d) 

-- PC: (0x400b4d) 

-- PC: (0x400b4d) 

-- PC: (0x400d01) 

-- PC: (0x400d01) 

-- PC: (0x400d04) 

-- PC: (0x400d04) 

-- PC: (0x400d04) 

-- PC: (0x400d04) 

-- PC: (0x400d04) 

-- PC: (0x400d04) 

-- PC: (0x400d07) 

-- PC: (0x400d07) 

-- PC: (0x400d07) 

-- PC: (0x400d07) 

-- PC: (0x400d0a) 

-- PC: (0x400d0a) 

-- PC: (0x400d0a) 

-- PC: (0x400d0a) 

-- PC: (0x400d0d) 

-- PC: (0x400d0d) 

-- PC: (0x400d0d) 

-- PC: (0x400d0d) 

-- PC: (0x400d0d) 

-- PC: (0x400d0d) 

-- PC: (0x400d10) 

-- PC: (0x400d10) 

-- PC: (0x400d10) 

-- PC: (0x400d10) 

-- PC: (0x400b4d) 

-- PC: (0x400b4d) 

-- PC: (0x400b4d) 

-- WriteReq [bb330:bb330] Hit -- Blk -> state: f (M) valid: 1 writable: 1 readable: 1 dirty: 1 | tag: 0x17 set: 0xcc way: 0 Latency: 2 

-- PC: (0x400d10) 

-- PC: (0x400d10) 

-- PC: (0x400d10) 

-- PC: (0x400d10) 

-- PC: (0x400cf2) 

-- PC: (0x400cf2) 

-- PC: (0x400cf2) 

-- PC: (0x400cf2) 

-- PC: (0x400cf5) 

-- PC: (0x400cf5) 

-- PC: (0x400cf5) 

-- PC: (0x400cf5) 

-- PC: (0x400cfa) 

-- PC: (0x400cfa) 

-- PC: (0x400cfa) 

-- PC: (0x400cfa) 

-- PC: (0x400cfc) 

-- PC: (0x400cfc) 

-- PC: (0x400cfc) 

-- PC: (0x400cfc) 

-- PC: (0x400cfc) 

-- PC: (0x400cfc) 

-- PC: (0x400cfc) 

-- PC: (0x400cfc) 

-- PC: (0x400b4d) 

-- PC: (0x400b4d) 

-- PC: (0x400b4d) 

-- PC: (0x400cfc) 

-- PC: (0x400cfc) 

-- PC: (0x400cfc) 

-- PC: (0x400cfc) 

-- PC: (0x400b4d) 

-- PC: (0x400b4d) 

-- PC: (0x400b4d) 

-- PC: (0x400b4d) 

-- PC: (0x400b4d) 

-- WriteReq [c5cd8:c5cdb] Hit -- Blk -> state: f (M) valid: 1 writable: 1 readable: 1 dirty: 1 | tag: 0x18 set: 0x173 way: 0 Latency: 2 

-- PC: (0x400b4d) 

-- PC: (0x400b4d) 

-- PC: (0x400b4d) 

-- PC: (0x400b4d) 

-- PC: (0x400b4d) 

-- PC: (0x400b4d) 

-- WriteReq [c5cc8:c5ccf] Hit -- Blk -> state: f (M) valid: 1 writable: 1 readable: 1 dirty: 1 | tag: 0x18 set: 0x173 way: 0 Latency: 2 

-- PC: (0x400b4d) 

-- PC: (0x400b4d) 

-- PC: (0x400b4d) 

-- PC: (0x400b4d) 

-- PC: (0x400b4d) 

-- PC: (0x400b4d) 

-- PC: (0x400b4d) 

-- PC: (0x400b4d) 

-- PC: (0x400b4d) 

-- PC: (0x400b4d) 

-- PC: (0x400b4d) 

-- PC: (0x400b4d) 

-- PC: (0x400b4d) 

-- PC: (0x400b4d) 

-- PC: (0x400b4d) 

-- PC: (0x400b4d) 

-- PC: (0x400b4d) 

-- PC: (0x400b51) 

-- PC: (0x400b51) 

-- PC: (0x400b54) 

-- PC: (0x400b54) 

-- PC: (0x400b57) 

-- PC: (0x400b5d) 

-- PC: (0x400b4d) 

-- PC: (0x400b4d) 

-- PC: (0x400b4d) 

-- PC: (0x400b4d) 

-- Tick (115700000) -- ISN: (76781) : S -> (0x10) at (0x7fffffffecc0) -- Size = (8)-- PC: (0x400b4d) 

 -- vaddr (0x7fffffffecc0) -- paddr (0xc5cc0) 

-- PC: (0x400b57) 

-- PC: (0x400b4d) 

-- PC: (0x400b4d) 

-- PC: (0x400b4d) 

-- PC: (0x400b4d) 

-- PC: (0x400b4e) 

-- PC: (0x400b4e) 

-- PC: (0x400b4e) 

-- PC: (0x400b4e) 

-- PC: (0x400b4e) 

-- PC: (0x400b4e) 

-- PC: (0x400b4e) 

-- PC: (0x400b4e) 

-- PC: (0x400b51) 

-- PC: (0x400b51) 

-- PC: (0x400b51) 

-- PC: (0x400b51) 

-- PC: (0x400b51) 

-- PC: (0x400b51) 

-- PC: (0x400b54) 

-- PC: (0x400b54) 

-- PC: (0x400b54) 

-- PC: (0x400b54) 

-- PC: (0x400b54) 

-- PC: (0x400b54) 

-- PC: (0x400b57) 

-- PC: (0x400b57) 

-- PC: (0x400b57) 

-- PC: (0x400b57) 

-- PC: (0x400b57) 

-- PC: (0x400b57) 

-- PC: (0x400b57) 

-- PC: (0x400b57) 

-- PC: (0x400b57) 

-- PC: (0x400b57) 

-- PC: (0x400b5d) 

-- PC: (0x400b5d) 

-- PC: (0x400b5d) 

-- PC: (0x400b5d) 

-- PC: (0x400b5d) 

-- PC: (0x400b5d) 

-- PC: (0x400b5d) 

-- PC: (0x400b5d) 

-- PC: (0x400b60) 

-- PC: (0x400b60) 

-- PC: (0x400b60) 

-- PC: (0x400b62) 

-- Tick (115700500) -- ISN: (76787) : L from (0x6b90f0) -- of Size = (4)-- PC: (0x400b57) 

 -- vaddr (0x6b90f0) -- paddr (0xb90f0) 

-- ReadReq [b90f0:b90f3] Hit -- Blk -> state: f (M) valid: 1 writable: 1 readable: 1 dirty: 1 | tag: 0x17 set: 0x43 way: 0 Latency: 2 

-- PC: (0x400b51) 

-- PC: (0x400b54) 

-- PC: (0x400b5d) 

-- PC: (0x400b62) 

-- PC: (0x400b60) 

-- PC: (0x400b60) 

-- PC: (0x400b60) 

-- PC: (0x400b60) 

-- PC: (0x400b60) 

-- PC: (0x400b60) 

-- PC: (0x400b60) 

-- PC: (0x400b60) 

-- PC: (0x400b60) 

-- PC: (0x400b60) 

-- PC: (0x400b60) 

-- PC: (0x400b62) 

-- PC: (0x400b60) 

-- PC: (0x400b62) 

-- PC: (0x400b60) 

-- PC: (0x400b62) 

-- PC: (0x400b62) 

-- PC: (0x400b62) 

-- PC: (0x400b62) 

-- PC: (0x400b62) 

-- PC: (0x400b62) 

-- PC: (0x400b65) 

-- PC: (0x400b65) 

-- PC: (0x400b65) 

-- PC: (0x400b65) 

-- PC: (0x400b65) 

-- PC: (0x400b65) 

-- PC: (0x400b67) 

-- PC: (0x400b67) 

-- PC: (0x400b67) 

-- PC: (0x400b67) 

-- PC: (0x400b67) 

-- PC: (0x400b67) 

-- PC: (0x400b67) 

-- PC: (0x400b67) 

-- PC: (0x400b6f) 

-- PC: (0x400b6f) 

-- PC: (0x400b6f) 

-- PC: (0x400b6f) 

-- PC: (0x400b6f) 

-- PC: (0x400b6f) 

-- PC: (0x400b6f) 

-- PC: (0x400b6f) 

-- PC: (0x400b6f) 

-- PC: (0x400b6f) 

-- PC: (0x400b76) 

-- PC: (0x400b76) 

-- PC: (0x400b76) 

-- PC: (0x400b76) 

-- PC: (0x400b79) 

-- Tick (115701000) -- ISN: (76784) : S -> (0x1) at (0x7fffffffecbc) -- Size = (4)-- PC: (0x400b51) 

 -- vaddr (0x7fffffffecbc) -- paddr (0xc5cbc) 

-- Tick (115701000) -- ISN: (76785) : S -> (0x0) at (0x7fffffffecb8) -- Size = (4)-- PC: (0x400b54) 

 -- vaddr (0x7fffffffecb8) -- paddr (0xc5cb8) 

-- Tick (115701000) -- ISN: (76788) : L from (0x7fffffffecbc) -- of Size = (4)-- PC: (0x400b5d) 

 -- vaddr (0x7fffffffecbc) -- paddr (0xc5cbc) 

-- Tick (115701000) -- ISN: (76793) : L from (0x7fffffffecbc) -- of Size = (4)-- PC: (0x400b62) 

 -- vaddr (0x7fffffffecbc) -- paddr (0xc5cbc) 

-- PC: (0x400b79) 

-- PC: (0x400b4d) 

-- PC: (0x400b4d) 

-- PC: (0x400b4d) 

-- PC: (0x400b4d) 

-- PC: (0x400b4e) 

-- PC: (0x400b4e) 

-- PC: (0x400b76) 

-- PC: (0x400b76) 

-- PC: (0x400b76) 

-- PC: (0x400b76) 

-- PC: (0x400b76) 

-- PC: (0x400b76) 

-- PC: (0x400b76) 

-- PC: (0x400b76) 

-- PC: (0x400b79) 

-- PC: (0x400b79) 

-- PC: (0x400b79) 

-- PC: (0x400b79) 

-- PC: (0x400b79) 

-- PC: (0x400b79) 

-- PC: (0x400b79) 

-- PC: (0x400b79) 

-- PC: (0x400b79) 

-- PC: (0x400b79) 

-- PC: (0x400b79) 

-- PC: (0x400b79) 

-- PC: (0x400b7d) 

-- PC: (0x400b7d) 

-- PC: (0x400b7d) 

-- PC: (0x400b7d) 

-- PC: (0x400b7d) 

-- PC: (0x400b7d) 

-- PC: (0x400b80) 

-- PC: (0x400b80) 

-- PC: (0x400b80) 

-- PC: (0x400b80) 

-- PC: (0x400b80) 

-- PC: (0x400b80) 

-- ReadReq [b80:bbf] IF Hit -- Blk -> state: 7 (E) valid: 1 writable: 1 readable: 1 dirty: 0 | tag: 0x2 set: 0xe way: 0 Latency: 2 

-- Tick (115701500) -- ISN: (76799) : L from (0x7fffffffecb8) -- of Size = (4)-- PC: (0x400b79) 

 -- vaddr (0x7fffffffecb8) -- paddr (0xc5cb8) 

-- PC: (0x400b4e) 

-- PC: (0x400b4e) 

-- PC: (0x400b51) 

-- PC: (0x400b51) 

-- PC: (0x400b87) 

-- PC: (0x400b8b) 

-- PC: (0x400b8b) 

-- PC: (0x400b92) 

-- PC: (0x400b92) 

-- WriteReq [c5cc0:c5cc7] Hit -- Blk -> state: f (M) valid: 1 writable: 1 readable: 1 dirty: 1 | tag: 0x18 set: 0x173 way: 0 Latency: 2 

-- PC: (0x400b51) 

-- PC: (0x400b51) 

-- PC: (0x400b54) 

-- PC: (0x400b54) 

-- PC: (0x400b54) 

-- PC: (0x400b54) 

-- PC: (0x400b57) 

-- PC: (0x400b57) 

-- PC: (0x400b57) 

-- PC: (0x400b57) 

-- PC: (0x400b80) 

-- PC: (0x400b80) 

-- PC: (0x400b80) 

-- PC: (0x400b80) 

-- PC: (0x400b80) 

-- PC: (0x400b80) 

-- PC: (0x400b87) 

-- PC: (0x400b87) 

-- PC: (0x400b87) 

-- PC: (0x400b87) 

-- PC: (0x400b87) 

-- PC: (0x400b87) 

-- PC: (0x400b87) 

-- PC: (0x400b87) 

-- PC: (0x400b87) 

-- PC: (0x400b87) 

-- PC: (0x400b8b) 

-- PC: (0x400b8b) 

-- PC: (0x400b8b) 

-- PC: (0x400b8b) 

-- PC: (0x400b8b) 

-- PC: (0x400b8b) 

-- PC: (0x400b8b) 

-- PC: (0x400b8b) 

-- PC: (0x400b8b) 

-- PC: (0x400b8b) 

-- PC: (0x400b91) 

-- PC: (0x400b91) 

-- PC: (0x400b91) 

-- PC: (0x400b91) 

-- PC: (0x400b91) 

-- PC: (0x400b91) 

-- PC: (0x400b92) 

-- PC: (0x400b92) 

-- PC: (0x400b92) 

-- PC: (0x400b92) 

-- PC: (0x400b92) 

-- PC: (0x400b92) 

-- PC: (0x400b92) 

-- PC: (0x400b92) 

-- PC: (0x400b93) 

-- PC: (0x400d01) 

-- Tick (115702500) -- ISN: (76811) : L from (0x7fffffffecc0) -- of Size = (8)-- PC: (0x400b92) 

 -- vaddr (0x7fffffffecc0) -- paddr (0xc5cc0) 

-- ReadReq [c5cc0:c5cc7] Hit -- Blk -> state: f (M) valid: 1 writable: 1 readable: 1 dirty: 1 | tag: 0x18 set: 0x173 way: 0 Latency: 2 

-- PC: (0x400b76) 

-- PC: (0x400b57) 

-- PC: (0x400b57) 

-- PC: (0x400b5d) 

-- PC: (0x400b5d) 

-- PC: (0x400b5d) 

-- PC: (0x400b5d) 

-- PC: (0x400b92) 

-- PC: (0x400b92) 

-- PC: (0x400b92) 

-- PC: (0x400b92) 

-- PC: (0x400b92) 

-- PC: (0x400b92) 

-- PC: (0x400b93) 

-- PC: (0x400b93) 

-- PC: (0x400b93) 

-- PC: (0x400b93) 

-- PC: (0x400b93) 

-- PC: (0x400b93) 

-- PC: (0x400b93) 

-- PC: (0x400b93) 

-- PC: (0x400b93) 

-- PC: (0x400b93) 

-- PC: (0x400b93) 

-- PC: (0x400d01) 

-- PC: (0x400b93) 

-- PC: (0x400d01) 

-- PC: (0x400d01) 

-- PC: (0x400d01) 

-- PC: (0x400d01) 

-- PC: (0x400d01) 

-- ReadReq [d00:d3f] IF Hit -- Blk -> state: 7 (E) valid: 1 writable: 1 readable: 1 dirty: 0 | tag: 0x3 set: 0x4 way: 0 Latency: 2 

-- PC: (0x400d07) 

-- PC: (0x400d07) 

-- PC: (0x400d0a) 

-- PC: (0x400cf2) 

-- Tick (115703000) -- ISN: (76798) : L from (0x6bc444) -- of Size = (4)-- PC: (0x400b76) 

 -- vaddr (0x6bc444) -- paddr (0xbc444) 

-- ReadReq [bc444:bc447] Hit -- Blk -> state: 7 (E) valid: 1 writable: 1 readable: 1 dirty: 0 | tag: 0x17 set: 0x111 way: 0 Latency: 2 

-- PC: (0x400b93) 

-- WriteReq [c5cbc:c5cbf] Hit -- Blk -> state: f (M) valid: 1 writable: 1 readable: 1 dirty: 1 | tag: 0x18 set: 0x172 way: 0 Latency: 2 

-- PC: (0x400b5d) 

-- PC: (0x400b5d) 

-- PC: (0x400b60) 

-- PC: (0x400b60) 

-- PC: (0x400b60) 

-- PC: (0x400b60) 

-- PC: (0x400b60) 

-- PC: (0x400b60) 

-- PC: (0x400cfc) 

-- PC: (0x400cfc) 

-- PC: (0x400b4d) 

-- PC: (0x400b4d) 

-- Tick (115703500) -- ISN: (76814) : L from (0x7fffffffecc8) -- of Size = (8)-- PC: (0x400b93) 

 -- vaddr (0x7fffffffecc8) -- paddr (0xc5cc8) 

-- ReadReq [c5cc8:c5ccf] Hit -- Blk -> state: f (M) valid: 1 writable: 1 readable: 1 dirty: 1 | tag: 0x18 set: 0x173 way: 0 Latency: 2 

-- PC: (0x400b60) 

-- PC: (0x400b60) 

-- PC: (0x400b62) 

-- PC: (0x400b62) 

-- PC: (0x400b62) 

-- PC: (0x400b62) 

-- PC: (0x400b65) 

-- PC: (0x400b65) 

-- PC: (0x400b65) 

-- PC: (0x400b65) 

-- PC: (0x400b67) 

-- PC: (0x400b67) 

-- PC: (0x400b67) 

-- PC: (0x400b67) 

-- PC: (0x400b6f) 

-- PC: (0x400b6f) 

-- PC: (0x400b6f) 

-- PC: (0x400b6f) 

-- PC: (0x400b6f) 

-- PC: (0x400b6f) 

-- PC: (0x400b76) 

-- PC: (0x400b76) 

-- PC: (0x400d01) 

-- PC: (0x400d01) 

-- PC: (0x400d01) 

-- PC: (0x400d01) 

-- PC: (0x400d01) 

-- PC: (0x400d04) 

-- PC: (0x400d04) 

-- PC: (0x400d04) 

-- PC: (0x400d04) 

-- PC: (0x400d04) 

-- PC: (0x400d04) 

-- PC: (0x400d04) 

-- PC: (0x400d04) 

-- PC: (0x400d07) 

-- PC: (0x400d07) 

-- PC: (0x400d07) 

-- PC: (0x400d07) 

-- PC: (0x400d07) 

-- PC: (0x400d07) 

-- PC: (0x400d07) 

-- PC: (0x400d07) 

-- PC: (0x400d0a) 

-- PC: (0x400d0a) 

-- PC: (0x400d0a) 

-- PC: (0x400d0a) 

-- PC: (0x400d0a) 

-- PC: (0x400d0a) 

-- PC: (0x400d0d) 

-- PC: (0x400d0d) 

-- PC: (0x400d0d) 

-- PC: (0x400d0d) 

-- PC: (0x400d0d) 

-- PC: (0x400d0d) 

-- PC: (0x400d0d) 

-- PC: (0x400d0d) 

-- PC: (0x400d10) 

-- PC: (0x400d10) 

-- PC: (0x400d10) 

-- PC: (0x400d10) 

-- PC: (0x400d10) 

-- PC: (0x400d10) 

-- PC: (0x400d10) 

-- PC: (0x400b51) 

-- PC: (0x400b51) 

-- PC: (0x400b54) 

-- PC: (0x400b54) 

-- PC: (0x400b57) 

-- PC: (0x400b5d) 

-- PC: (0x400d01) 

-- PC: (0x400cf2) 

-- PC: (0x400cfc) 

-- PC: (0x400b4d) 

-- PC: (0x400d10) 

-- PC: (0x400d10) 

-- PC: (0x400d10) 

-- PC: (0x400d10) 

-- PC: (0x400d10) 

-- PC: (0x400d10) 

-- PC: (0x400d10) 

-- PC: (0x400d10) 

-- PC: (0x400cf2) 

-- PC: (0x400d10) 

-- PC: (0x400cf2) 

-- PC: (0x400d10) 

-- PC: (0x400cf2) 

-- PC: (0x400cf2) 

-- PC: (0x400cf2) 

-- PC: (0x400cf2) 

-- PC: (0x400cf2) 

-- ReadReq [cc0:cff] IF Hit -- Blk -> state: 7 (E) valid: 1 writable: 1 readable: 1 dirty: 0 | tag: 0x3 set: 0x3 way: 0 Latency: 2 

-- PC: (0x400b62) 

-- Tick (115704500) -- ISN: (76817) : L from (0x7fffffffecd8) -- of Size = (4)-- PC: (0x400d01) 

 -- vaddr (0x7fffffffecd8) -- paddr (0xc5cd8) 

-- ReadReq [c5cd8:c5cdb] Hit -- Blk -> state: f (M) valid: 1 writable: 1 readable: 1 dirty: 1 | tag: 0x18 set: 0x173 way: 0 Latency: 2 

-- Tick (115704500) -- ISN: (76827) : L from (0x7fffffffecd8) -- of Size = (4)-- PC: (0x400cf2) 

 -- vaddr (0x7fffffffecd8) -- paddr (0xc5cd8) 

-- ReadReq [c5cd8:c5cdb] Hit -- Blk -> state: f (M) valid: 1 writable: 1 readable: 1 dirty: 1 | tag: 0x18 set: 0x173 way: 0 Latency: 2 

-- Tick (115704500) -- ISN: (76832) : S -> (0x1) at (0x7fffffffecc8) -- Size = (8)-- PC: (0x400cfc) 

 -- vaddr (0x7fffffffecc8) -- paddr (0xc5cc8) 

-- Tick (115704500) -- ISN: (76835) : S -> (0x10) at (0x7fffffffecc0) -- Size = (8)-- PC: (0x400b4d) 

 -- vaddr (0x7fffffffecc0) -- paddr (0xc5cc0) 

-- PC: (0x400b57) 

-- WriteReq [c5cb8:c5cbb] Hit -- Blk -> state: f (M) valid: 1 writable: 1 readable: 1 dirty: 1 | tag: 0x18 set: 0x172 way: 0 Latency: 2 

-- PC: (0x400b76) 

-- PC: (0x400b79) 

-- Tick (115705000) -- ISN: (76841) : L from (0x6b90f0) -- of Size = (4)-- PC: (0x400b57) 

 -- vaddr (0x6b90f0) -- paddr (0xb90f0) 

-- ReadReq [b90f0:b90f3] Hit -- Blk -> state: f (M) valid: 1 writable: 1 readable: 1 dirty: 1 | tag: 0x17 set: 0x43 way: 0 Latency: 2 

-- PC: (0x400b54) 

-- PC: (0x400b5d) 

-- PC: (0x400b62) 

-- PC: (0x400b79) 

-- PC: (0x400b76) 

-- PC: (0x400b76) 

-- PC: (0x400b79) 

-- PC: (0x400b79) 

-- PC: (0x400b79) 

-- PC: (0x400b79) 

-- PC: (0x400cf2) 

-- PC: (0x400cf2) 

-- PC: (0x400cf2) 

-- PC: (0x400cf2) 

-- PC: (0x400cf2) 

-- PC: (0x400cf5) 

-- PC: (0x400cf5) 

-- PC: (0x400cf5) 

-- PC: (0x400cf5) 

-- PC: (0x400cf5) 

-- PC: (0x400cf5) 

-- PC: (0x400cf5) 

-- PC: (0x400cf5) 

-- PC: (0x400cfa) 

-- PC: (0x400cfa) 

-- PC: (0x400cfa) 

-- PC: (0x400cfa) 

-- PC: (0x400cfa) 

-- PC: (0x400cfa) 

-- PC: (0x400cfc) 

-- PC: (0x400cfc) 

-- PC: (0x400cfc) 

-- PC: (0x400cfc) 

-- PC: (0x400cfc) 

-- PC: (0x400cfc) 

-- PC: (0x400cfc) 

-- PC: (0x400cfc) 

-- PC: (0x400cfc) 

-- ReadReq [d00:d3f] IF Hit -- Blk -> state: 7 (E) valid: 1 writable: 1 readable: 1 dirty: 0 | tag: 0x3 set: 0x4 way: 0 Latency: 2 

-- PC: (0x400b87) 

-- PC: (0x400b8b) 

-- PC: (0x400b8b) 

-- PC: (0x400b92) 

-- Tick (115705500) -- ISN: (76839) : S -> (0x0) at (0x7fffffffecb8) -- Size = (4)-- PC: (0x400b54) 

 -- vaddr (0x7fffffffecb8) -- paddr (0xc5cb8) 

-- Tick (115705500) -- ISN: (76842) : L from (0x7fffffffecbc) -- of Size = (4)-- PC: (0x400b5d) 

 -- vaddr (0x7fffffffecbc) -- paddr (0xc5cbc) 

-- ReadReq [c5cbc:c5cbf] Hit -- Blk -> state: f (M) valid: 1 writable: 1 readable: 1 dirty: 1 | tag: 0x18 set: 0x172 way: 0 Latency: 2 

-- Tick (115705500) -- ISN: (76847) : L from (0x7fffffffecbc) -- of Size = (4)-- PC: (0x400b62) 

 -- vaddr (0x7fffffffecbc) -- paddr (0xc5cbc) 

-- ReadReq [c5cbc:c5cbf] Hit -- Blk -> state: f (M) valid: 1 writable: 1 readable: 1 dirty: 1 | tag: 0x18 set: 0x172 way: 0 Latency: 2 

-- Tick (115705500) -- ISN: (76853) : L from (0x7fffffffecb8) -- of Size = (4)-- PC: (0x400b79) 

 -- vaddr (0x7fffffffecb8) -- paddr (0xc5cb8) 

-- PC: (0x400b92) 

-- PC: (0x400b93) 

-- PC: (0x400d01) 

-- PC: (0x400d07) 

-- PC: (0x400d07) 

-- PC: (0x400d0a) 

-- Tick (115706000) -- ISN: (76865) : L from (0x7fffffffecc0) -- of Size = (8)-- PC: (0x400b92) 

 -- vaddr (0x7fffffffecc0) -- paddr (0xc5cc0) 

-- PC: (0x400d07) 

-- PC: (0x400cfc) 

-- PC: (0x400cfc) 

-- PC: (0x400cfc) 

-- PC: (0x400cfc) 

-- PC: (0x400cfc) 

-- PC: (0x400cfc) 

-- PC: (0x400cfc) 

-- PC: (0x400cfc) 

-- PC: (0x400cfc) 

-- PC: (0x400cfc) 

-- PC: (0x400cfc) 

-- PC: (0x400cfc) 

-- PC: (0x400cfc) 

-- PC: (0x400cfc) 

-- PC: (0x400b4d) 

-- PC: (0x400cfc) 

-- PC: (0x400b4d) 

-- PC: (0x400cfc) 

-- PC: (0x400b4d) 

-- PC: (0x400b4d) 

-- PC: (0x400b4d) 

-- PC: (0x400b4d) 

-- PC: (0x400b4d) 

-- ReadReq [b40:b7f] IF Hit -- Blk -> state: 7 (E) valid: 1 writable: 1 readable: 1 dirty: 0 | tag: 0x2 set: 0xd way: 0 Latency: 2 

-- Tick (115706500) -- ISN: (76820) : S -> (0x2) at (0x7fffffffecd8) -- Size = (4)-- PC: (0x400d07) 

 -- vaddr (0x7fffffffecd8) -- paddr (0xc5cd8) 

-- PC: (0x400cf2) 

-- PC: (0x400d07) 

-- PC: (0x400b87) 

-- PC: (0x400d0a) 

-- PC: (0x400b51) 

-- PC: (0x400b93) 

-- PC: (0x400b79) 

-- PC: (0x400b79) 

-- Tick (115707000) -- ISN: (76806) : L from (0x6bc3c0) -- of Size = (1)-- PC: (0x400b87) 

 -- vaddr (0x6bc3c0) -- paddr (0xbc3c0) 

-- ReadReq [bc3c0:bc3c0] Hit -- Blk -> state: 7 (E) valid: 1 writable: 1 readable: 1 dirty: 0 | tag: 0x17 set: 0x10f way: 0 Latency: 2 

-- Tick (115707000) -- ISN: (76821) : L from (0x7fffffffecd8) -- of Size = (4)-- PC: (0x400d0a) 

 -- vaddr (0x7fffffffecd8) -- paddr (0xc5cd8) 

-- Tick (115707000) -- ISN: (76838) : S -> (0x1) at (0x7fffffffecbc) -- Size = (4)-- PC: (0x400b51) 

 -- vaddr (0x7fffffffecbc) -- paddr (0xc5cbc) 

-- PC: (0x400b5d) 

-- PC: (0x400b51) 

-- Tick (115707000) -- ISN: (76868) : L from (0x7fffffffecc8) -- of Size = (8)-- PC: (0x400b93) 

 -- vaddr (0x7fffffffecc8) -- paddr (0xc5cc8) 

-- PC: (0x400d10) 

-- PC: (0x400cf2) 

-- Sqsh -> ISN (76826)

-- PC: (0x400cf2) 

-- PC: (0x400cf2) 

-- ReadReq [cc0:cff] IF Hit -- Blk -> state: 7 (E) valid: 1 writable: 1 readable: 1 dirty: 0 | tag: 0x3 set: 0x3 way: 0 Latency: 2 

-- PC: (0x400b8b) 

-- PC: (0x400cf2) 

-- PC: (0x400cf2) 

-- PC: (0x400cf2) 

-- PC: (0x400cf2) 

-- PC: (0x400cf2) 

-- PC: (0x400cf5) 

-- PC: (0x400cf5) 

-- PC: (0x400cf5) 

-- PC: (0x400cf5) 

-- PC: (0x400cf5) 

-- PC: (0x400cf5) 

-- PC: (0x400cf5) 

-- PC: (0x400cf5) 

-- PC: (0x400cfa) 

-- PC: (0x400cfa) 

-- PC: (0x400cfa) 

-- PC: (0x400cfa) 

-- PC: (0x400cfa) 

-- PC: (0x400cfa) 

-- PC: (0x400cfc) 

-- PC: (0x400cfc) 

-- PC: (0x400cfc) 

-- PC: (0x400cfc) 

-- PC: (0x400cfc) 

-- PC: (0x400cfc) 

-- PC: (0x400cfc) 

-- PC: (0x400cfc) 

-- PC: (0x400cfc) 

-- ReadReq [d00:d3f] IF Hit -- Blk -> state: 7 (E) valid: 1 writable: 1 readable: 1 dirty: 0 | tag: 0x3 set: 0x4 way: 0 Latency: 2 

-- Tick (115709000) -- ISN: (76809) : S -> (0x0) at (0x6bb330) -- Size = (1)-- PC: (0x400b8b) 

 -- vaddr (0x6bb330) -- paddr (0xbb330) 

-- PC: (0x400cfc) 

-- PC: (0x400cfc) 

-- PC: (0x400cfc) 

-- PC: (0x400cfc) 

-- PC: (0x400cfc) 

-- PC: (0x400cfc) 

-- PC: (0x400cfc) 

-- PC: (0x400cfc) 

-- PC: (0x400cfc) 

-- PC: (0x400cfc) 

-- PC: (0x400cfc) 

-- PC: (0x400cfc) 

[...]

-- PC: (0x400b54) 

-- PC: (0x400b57) 

-- PC: (0x400b5d) 

-- PC: (0x400b4d) 

-- PC: (0x400b92) 

-- PC: (0x400b92) 

-- PC: (0x400b92) 

-- PC: (0x400b92) 

-- PC: (0x400b92) 

-- PC: (0x400b92) 

-- PC: (0x400b93) 

-- PC: (0x400b93) 

-- PC: (0x400b93) 

-- PC: (0x400b93) 

-- PC: (0x400b93) 

-- PC: (0x400b93) 

-- PC: (0x400b93) 

-- PC: (0x400b93) 

-- PC: (0x400b93) 

-- PC: (0x400b93) 

-- PC: (0x400b93) 

-- PC: (0x400d76) 

-- PC: (0x400b93) 

-- PC: (0x400d76) 

-- PC: (0x400d76) 

-- PC: (0x400d76) 

-- PC: (0x400d76) 

-- PC: (0x400d76) 

-- ReadReq [d40:d7f] IF Hit -- Blk -> state: 7 (E) valid: 1 writable: 1 readable: 1 dirty: 0 | tag: 0x3 set: 0x5 way: 0 Latency: 2 

-- PC: (0x400b62) 

-- Tick (120571500) -- ISN: (84719) : S -> (0x10) at (0x7fffffffecc0) -- Size = (8)-- PC: (0x400b4d) 

 -- vaddr (0x7fffffffecc0) -- paddr (0xc5cc0) 

-- PC: (0x400b57) 

-- PC: (0x400b76) 

-- PC: (0x400b79) 

-- Tick (120572000) -- ISN: (84725) : L from (0x6b90f0) -- of Size = (4)-- PC: (0x400b57) 

 -- vaddr (0x6b90f0) -- paddr (0xb90f0) 

-- ReadReq [b90f0:b90f3] Miss --  Latency: 502 

-- PC: (0x400b51) 

-- PC: (0x400b54) 

-- PC: (0x400d76) 

-- PC: (0x400d76) 

-- PC: (0x400d76) 

-- PC: (0x400d76) 

-- PC: (0x400d76) 

-- PC: (0x400d76) 

-- PC: (0x400d76) 

-- PC: (0x400d79) 

-- PC: (0x400d79) 

-- PC: (0x400d79) 

-- PC: (0x400d79) 

-- PC: (0x400d79) 

-- PC: (0x400d79) 

-- PC: (0x400d7c) 

-- PC: (0x400d7c) 

-- PC: (0x400d7c) 

-- PC: (0x400d7c) 

-- PC: (0x400d7c) 

-- PC: (0x400d7c) 

-- PC: (0x400d7c) 

-- PC: (0x400d7c) 

-- PC: (0x400d7c) 

-- ReadReq [d80:dbf] IF Hit -- Blk -> state: 7 (E) valid: 1 writable: 1 readable: 1 dirty: 0 | tag: 0x3 set: 0x6 way: 0 Latency: 2 

-- Tick (120572500) -- ISN: (84722) : S -> (0x69) at (0x7fffffffecbc) -- Size = (4)-- PC: (0x400b51) 

 -- vaddr (0x7fffffffecbc) -- paddr (0xc5cbc) 

-- Tick (120572500) -- ISN: (84723) : S -> (0x40) at (0x7fffffffecb8) -- Size = (4)-- PC: (0x400b54) 

 -- vaddr (0x7fffffffecb8) -- paddr (0xc5cb8) 

-- PC: (0x400b5d) 

-- PC: (0x400b62) 

-- PC: (0x400b79) 

-- PC: (0x400b4d) 

-- PC: (0x400b4d) 

-- PC: (0x400b4d) 

-- PC: (0x400b4d) 

-- PC: (0x400b4e) 

-- PC: (0x400b4e) 

-- PC: (0x400b87) 

-- PC: (0x400b8b) 

-- PC: (0x400b8b) 

-- PC: (0x400b92) 

-- Tick (120573000) -- ISN: (84726) : L from (0x7fffffffecbc) -- of Size = (4)-- PC: (0x400b5d) 

 -- vaddr (0x7fffffffecbc) -- paddr (0xc5cbc) 

-- Tick (120573000) -- ISN: (84731) : L from (0x7fffffffecbc) -- of Size = (4)-- PC: (0x400b62) 

 -- vaddr (0x7fffffffecbc) -- paddr (0xc5cbc) 

-- Tick (120573000) -- ISN: (84737) : L from (0x7fffffffecb8) -- of Size = (4)-- PC: (0x400b79) 

 -- vaddr (0x7fffffffecb8) -- paddr (0xc5cb8) 

-- PC: (0x400b92) 

-- PC: (0x400b4e) 

-- PC: (0x400b4e) 

-- PC: (0x400b51) 

-- PC: (0x400b51) 

-- PC: (0x400d7c) 

-- PC: (0x400d7c) 

-- PC: (0x400d7c) 

-- PC: (0x400d7c) 

-- PC: (0x400d81) 

-- PC: (0x400d81) 

-- PC: (0x400d81) 

-- PC: (0x400d81) 

-- PC: (0x400d81) 

-- PC: (0x400d81) 

-- PC: (0x400d81) 

-- PC: (0x400d81) 

-- PC: (0x400d81) 

-- PC: (0x400d81) 

-- PC: (0x400d81) 

-- PC: (0x400d81) 

-- PC: (0x400d81) 

-- PC: (0x400d81) 

-- PC: (0x400d81) 

-- PC: (0x400d81) 

-- PC: (0x400d86) 

-- PC: (0x400d81) 

-- PC: (0x400d86) 

-- PC: (0x400d81) 

-- PC: (0x400d86) 

-- PC: (0x400d86) 

-- PC: (0x400d86) 

-- PC: (0x400d86) 

-- PC: (0x400d86) 

-- PC: (0x400d86) 

-- PC: (0x400d86) 

-- PC: (0x400d86) 

-- PC: (0x400d89) 

-- PC: (0x400d89) 

-- PC: (0x400d89) 

-- PC: (0x400d89) 

-- PC: (0x400d89) 

-- PC: (0x400d89) 

-- PC: (0x400d8c) 

-- PC: (0x400d8c) 

-- PC: (0x400d8c) 

-- PC: (0x400b93) 

-- Tick (120573500) -- ISN: (84749) : L from (0x7fffffffecc0) -- of Size = (8)-- PC: (0x400b92) 

 -- vaddr (0x7fffffffecc0) -- paddr (0xc5cc0) 

-- WriteReq [c5cc0:c5cc7] Hit -- Blk -> state: f (M) valid: 1 writable: 1 readable: 1 dirty: 1 | tag: 0x18 set: 0x173 way: 0 Latency: 2 

-- PC: (0x400b51) 

-- PC: (0x400b51) 

-- PC: (0x400b54) 

-- PC: (0x400b54) 

-- PC: (0x400b54) 

-- PC: (0x400b54) 

-- PC: (0x400b57) 

-- PC: (0x400b57) 

-- PC: (0x400b57) 

-- PC: (0x400b57) 

-- PC: (0x400d8c) 

-- PC: (0x400d8c) 

-- PC: (0x400d8c) 

-- PC: (0x400d8c) 

-- PC: (0x400d8c) 

-- PC: (0x400d8c) 

-- PC: (0x400d8c) 

-- PC: (0x400d8c) 

-- PC: (0x400d8c) 

-- PC: (0x400d8c) 

-- PC: (0x400d8e) 

-- PC: (0x400d8e) 

-- PC: (0x400d8e) 

-- PC: (0x400d8e) 

-- PC: (0x400d8e) 

-- PC: (0x400d8e) 

-- PC: (0x400d8e) 

-- PC: (0x400d8e) 

-- PC: (0x400d92) 

-- PC: (0x400d92) 

-- PC: (0x400d92) 

-- PC: (0x400d92) 

-- PC: (0x400d92) 

-- PC: (0x400d92) 

-- PC: (0x400d95) 

-- PC: (0x400d95) 

-- PC: (0x400d95) 

-- PC: (0x400d95) 

-- PC: (0x400d95) 

-- PC: (0x400d95) 

-- PC: (0x400d95) 

-- PC: (0x400d95) 

-- PC: (0x400d99) 

-- PC: (0x400d99) 

-- PC: (0x400d99) 

-- PC: (0x400d99) 

-- PC: (0x400d99) 

-- PC: (0x400d99) 

-- PC: (0x400d99) 

-- PC: (0x400d99) 

-- PC: (0x400d9f) 

-- PC: (0x400d9f) 

-- PC: (0x400d9f) 

-- PC: (0x400b93) 

-- PC: (0x400d9f) 

-- PC: (0x400d9f) 

-- PC: (0x400d9f) 

-- PC: (0x400d9f) 

-- PC: (0x400d9f) 

-- PC: (0x400d9f) 

-- PC: (0x400d9f) 

-- PC: (0x400d9f) 

-- PC: (0x400d9f) 

-- PC: (0x400d9f) 

-- PC: (0x400da5) 

-- PC: (0x400da5) 

-- PC: (0x400da5) 

-- PC: (0x400da5) 

-- PC: (0x400da5) 

-- PC: (0x400da5) 

-- PC: (0x400da5) 

-- PC: (0x400da5) 

-- PC: (0x400da5) 

-- PC: (0x400da5) 

-- PC: (0x400da7) 

-- PC: (0x400da7) 

-- PC: (0x400da7) 

-- PC: (0x400da7) 

-- PC: (0x400da7) 

-- PC: (0x400da7) 

-- PC: (0x400da7) 

-- PC: (0x400da7) 

-- PC: (0x400dab) 

-- PC: (0x400dab) 

-- PC: (0x400dab) 

-- PC: (0x400dab) 

-- PC: (0x400dab) 

-- PC: (0x400dab) 

-- PC: (0x400dae) 

-- PC: (0x400dae) 

-- PC: (0x400dae) 

-- PC: (0x400dae) 

-- PC: (0x400dae) 

-- PC: (0x400dae) 

-- PC: (0x400dae) 

-- PC: (0x400dae) 

-- PC: (0x400db2) 

-- PC: (0x400db2) 

-- PC: (0x400db2) 

-- Tick (120574500) -- ISN: (84752) : L from (0x7fffffffecc8) -- of Size = (8)-- PC: (0x400b93) 

 -- vaddr (0x7fffffffecc8) -- paddr (0xc5cc8) 

-- ReadReq [c5cc8:c5ccf] Hit -- Blk -> state: f (M) valid: 1 writable: 1 readable: 1 dirty: 1 | tag: 0x18 set: 0x173 way: 0 Latency: 2 

-- PC: (0x400b76) 

-- WriteReq [c5cbc:c5cbf] Hit -- Blk -> state: f (M) valid: 1 writable: 1 readable: 1 dirty: 1 | tag: 0x18 set: 0x172 way: 0 Latency: 2 

-- PC: (0x400db2) 

-- PC: (0x400db2) 

-- PC: (0x400db2) 

-- PC: (0x400db2) 

-- PC: (0x400db2) 

-- PC: (0x400db2) 

-- PC: (0x400db2) 

-- PC: (0x400db2) 

-- PC: (0x400db8) 

-- PC: (0x400db8) 

-- PC: (0x400db8) 

-- PC: (0x400db8) 

-- PC: (0x400db8) 

-- PC: (0x400db8) 

-- PC: (0x400db8) 

-- PC: (0x400dbe) 

-- PC: (0x400dbe) 

-- PC: (0x400dbe) 

-- PC: (0x400dbe) 

-- PC: (0x400dbe) 

-- PC: (0x400dbe) 

-- PC: (0x400dbe) 

-- PC: (0x400dbe) 

-- PC: (0x400dbe) 

-- PC: (0x400dbe) 

-- PC: (0x400dc0) 

-- PC: (0x400dc0) 

-- PC: (0x400dc0) 

-- PC: (0x400dc0) 

-- PC: (0x400dc0) 

-- PC: (0x400dc0) 

-- ReadReq [dc0:dff] IF Miss --  Latency: 502 

-- Tick (120575000) -- ISN: (84736) : L from (0x6bc5e4) -- of Size = (4)-- PC: (0x400b76) 

 -- vaddr (0x6bc5e4) -- paddr (0xbc5e4) 

-- ReadReq [bc5e4:bc5e7] Hit -- Blk -> state: f (M) valid: 1 writable: 1 readable: 1 dirty: 1 | tag: 0x17 set: 0x117 way: 0 Latency: 2 

-- WriteReq [c5cb8:c5cbb] Hit -- Blk -> state: f (M) valid: 1 writable: 1 readable: 1 dirty: 1 | tag: 0x18 set: 0x172 way: 0 Latency: 2 

-- PC: (0x400b87) 

-- Tick (120579000) -- ISN: (84744) : L from (0x6bc400) -- of Size = (1)-- PC: (0x400b87) 

 -- vaddr (0x6bc400) -- paddr (0xbc400) 

-- ReadReq [bc400:bc400] Miss --  Latency: 502 

-- PC: (0x400b57) 

-- PC: (0x400b57) 

-- PC: (0x400b5d) 

-- PC: (0x400b5d) 

-- PC: (0x400b5d) 

-- PC: (0x400b5d) 

-- PC: (0x400b60) 

-- PC: (0x400b91) 

-- PC: (0x400b91) 

-- PC: (0x400b91) 

-- PC: (0x400b91) 

-- Sqsh -> ISN (84730)

-- PC: (0x400b91) 

-- PC: (0x400b91) 

-- ReadReq [b80:bbf] IF Hit -- Blk -> state: 7 (E) valid: 1 writable: 1 readable: 1 dirty: 0 | tag: 0x2 set: 0xe way: 0 Latency: 2 

-- PC: (0x400b91) 

-- PC: (0x400b91) 

-- PC: (0x400b91) 

-- PC: (0x400b91) 

-- PC: (0x400b91) 

-- PC: (0x400b92) 

-- PC: (0x400b92) 

-- PC: (0x400b92) 

-- PC: (0x400b92) 

-- PC: (0x400b92) 

-- PC: (0x400b92) 

-- PC: (0x400b92) 

-- PC: (0x400b92) 

-- PC: (0x400b92) 

-- PC: (0x400b92) 

-- PC: (0x400b93) 

-- PC: (0x400b93) 

-- PC: (0x400b93) 

-- PC: (0x400b93) 

-- PC: (0x400b93) 

-- PC: (0x400b93) 

-- PC: (0x400b93) 

-- PC: (0x400b93) 

-- PC: (0x400b93) 

-- PC: (0x400b93) 

-- PC: (0x400b93) 

-- PC: (0x400d76) 

-- PC: (0x400b93) 

-- PC: (0x400d76) 

-- PC: (0x400d76) 

-- PC: (0x400d76) 

-- PC: (0x400d76) 

-- PC: (0x400d76) 

-- ReadReq [d40:d7f] IF Hit -- Blk -> state: 7 (E) valid: 1 writable: 1 readable: 1 dirty: 0 | tag: 0x3 set: 0x5 way: 0 Latency: 2 

-- PC: (0x400b5d) 

-- PC: (0x400b5d) 

-- PC: (0x400b60) 

-- PC: (0x400b60) 

-- PC: (0x400b60) 

-- PC: (0x400b60) 

-- PC: (0x400b60) 

-- PC: (0x400b60) 

-- PC: (0x400b60) 

-- PC: (0x400b60) 

-- PC: (0x400b91) 

-- PC: (0x400b91) 

-- PC: (0x400d76) 

-- PC: (0x400d76) 

-- PC: (0x400d76) 

-- PC: (0x400d76) 

-- PC: (0x400d76) 

-- PC: (0x400d76) 

-- PC: (0x400d76) 

-- PC: (0x400d79) 

-- PC: (0x400d79) 

-- PC: (0x400d79) 

-- PC: (0x400d79) 

-- PC: (0x400d79) 

-- PC: (0x400d79) 

-- PC: (0x400d7c) 

-- PC: (0x400d7c) 

-- PC: (0x400d7c) 

-- PC: (0x400d7c) 

-- PC: (0x400d7c) 

-- PC: (0x400d7c) 

-- PC: (0x400d7c) 

-- PC: (0x400d7c) 

-- PC: (0x400d7c) 

-- ReadReq [d80:dbf] IF Hit -- Blk -> state: 7 (E) valid: 1 writable: 1 readable: 1 dirty: 0 | tag: 0x3 set: 0x6 way: 0 Latency: 2 

-- PC: (0x400d7c) 

-- PC: (0x400d7c) 

-- PC: (0x400d7c) 

-- PC: (0x400d7c) 

-- PC: (0x400d81) 

-- PC: (0x400d81) 

-- PC: (0x400d81) 

-- PC: (0x400d81) 

-- PC: (0x400d81) 

-- PC: (0x400d81) 

-- PC: (0x400d81) 

-- PC: (0x400d81) 

-- PC: (0x400d81) 

-- PC: (0x400d81) 

-- PC: (0x400d81) 

-- PC: (0x400d81) 

-- PC: (0x400d81) 

-- PC: (0x400d81) 

-- PC: (0x400d81) 

-- PC: (0x400d81) 

-- PC: (0x400d86) 

-- PC: (0x400d81) 

-- PC: (0x400d86) 

-- PC: (0x400d81) 

-- PC: (0x400d86) 

-- PC: (0x400d86) 

-- PC: (0x400d86) 

-- PC: (0x400d86) 

-- PC: (0x400d86) 

-- PC: (0x400d86) 

-- PC: (0x400d86) 

-- PC: (0x400d86) 

-- PC: (0x400d89) 

-- PC: (0x400d89) 

-- PC: (0x400d89) 

-- PC: (0x400d89) 

-- PC: (0x400d89) 

-- PC: (0x400d89) 

-- PC: (0x400d8c) 

-- PC: (0x400d8c) 

-- PC: (0x400d8c) 

-- PC: (0x400d8c) 

-- PC: (0x400d8c) 

-- PC: (0x400d8c) 

-- PC: (0x400d8c) 

-- PC: (0x400d8c) 

-- PC: (0x400d8c) 

-- PC: (0x400d8c) 

-- PC: (0x400d8c) 

-- PC: (0x400d8c) 

-- PC: (0x400d8c) 

-- PC: (0x400d8e) 

-- PC: (0x400d8e) 

-- PC: (0x400d8e) 

-- PC: (0x400d8e) 

-- PC: (0x400d8e) 

-- PC: (0x400d8e) 

-- PC: (0x400d8e) 

-- PC: (0x400d8e) 

-- PC: (0x400d92) 

-- PC: (0x400d92) 

-- PC: (0x400d92) 

-- PC: (0x400d92) 

-- PC: (0x400d92) 

-- PC: (0x400d92) 

-- PC: (0x400d95) 

-- PC: (0x400d95) 

-- PC: (0x400d95) 

-- PC: (0x400d95) 

-- PC: (0x400d95) 

-- PC: (0x400d95) 

-- PC: (0x400d95) 

-- PC: (0x400d95) 

-- PC: (0x400d99) 

-- PC: (0x400d99) 

-- PC: (0x400d99) 

-- PC: (0x400d99) 

-- PC: (0x400d99) 

-- PC: (0x400d99) 

-- PC: (0x400d99) 

-- PC: (0x400d99) 

-- PC: (0x400d9f) 

-- PC: (0x400d9f) 

-- PC: (0x400d9f) 

-- PC: (0x400d9f) 

-- PC: (0x400d9f) 

-- PC: (0x400d9f) 

-- PC: (0x400d9f) 

-- PC: (0x400d9f) 

-- PC: (0x400d9f) 

-- PC: (0x400d9f) 

-- PC: (0x400d9f) 

-- PC: (0x400d9f) 

-- PC: (0x400d9f) 

-- PC: (0x400da5) 

-- PC: (0x400da5) 

-- PC: (0x400da5) 

-- PC: (0x400da5) 

-- PC: (0x400da5) 

-- PC: (0x400da5) 

-- PC: (0x400da5) 

-- PC: (0x400da5) 

-- PC: (0x400da5) 

-- PC: (0x400da5) 

-- PC: (0x400da7) 

-- PC: (0x400da7) 

-- PC: (0x400da7) 

-- PC: (0x400da7) 

-- PC: (0x400da7) 

-- PC: (0x400da7) 

-- PC: (0x400da7) 

-- PC: (0x400da7) 

-- PC: (0x400dab) 

-- PC: (0x400dab) 

-- PC: (0x400dab) 

-- PC: (0x400dab) 

-- PC: (0x400dab) 

-- PC: (0x400dab) 

-- PC: (0x400dae) 

-- PC: (0x400dae) 

-- PC: (0x400dae) 

-- PC: (0x400dae) 

-- PC: (0x400dae) 

-- PC: (0x400dae) 

-- PC: (0x400dae) 

-- PC: (0x400dae) 

-- PC: (0x400db2) 

-- PC: (0x400db2) 

-- PC: (0x400db2) 

-- PC: (0x400b92) 

-- PC: (0x400b93) 

-- PC: (0x400b92) 

-- PC: (0x400db2) 

-- PC: (0x400db2) 

-- PC: (0x400db2) 

-- PC: (0x400db2) 

-- PC: (0x400db2) 

-- PC: (0x400db2) 

-- PC: (0x400db2) 

-- PC: (0x400db2) 

-- PC: (0x400db8) 

-- PC: (0x400db8) 

-- PC: (0x400db8) 

-- PC: (0x400db8) 

-- PC: (0x400db8) 

-- PC: (0x400db8) 

-- PC: (0x400db8) 

-- PC: (0x400dbe) 

-- PC: (0x400dbe) 

-- PC: (0x400dbe) 

-- PC: (0x400dbe) 

-- PC: (0x400dbe) 

-- PC: (0x400dbe) 

-- PC: (0x400dbe) 

-- PC: (0x400dbe) 

-- PC: (0x400dbe) 

-- PC: (0x400dbe) 

-- PC: (0x400dc0) 

-- PC: (0x400dc0) 

-- PC: (0x400dc0) 

-- PC: (0x400dc0) 

-- PC: (0x400dc0) 

-- PC: (0x400dc0) 

-- ReadReq [dc0:dff] IF Miss --  Latency: 502 

-- Tick (120602000) -- ISN: (84789) : L from (0x7fffffffecc0) -- of Size = (8)-- PC: (0x400b92) 

 -- vaddr (0x7fffffffecc0) -- paddr (0xc5cc0) 

-- ReadReq [c5cc0:c5cc7] Hit -- Blk -> state: f (M) valid: 1 writable: 1 readable: 1 dirty: 1 | tag: 0x18 set: 0x173 way: 0 Latency: 2 

-- PC: (0x400b93) 

-- Tick (120602500) -- ISN: (84792) : L from (0x7fffffffecc8) -- of Size = (8)-- PC: (0x400b93) 

 -- vaddr (0x7fffffffecc8) -- paddr (0xc5cc8) 

-- ReadReq [c5cc8:c5ccf] Hit -- Blk -> state: f (M) valid: 1 writable: 1 readable: 1 dirty: 1 | tag: 0x18 set: 0x173 way: 0 Latency: 2 

-- PC: (0x400b91) 

-- PC: (0x400b91) 

-- PC: (0x400b92) 

-- PC: (0x400b92) 

-- PC: (0x400b92) 

-- PC: (0x400b92) 

-- PC: (0x400b92) 

-- PC: (0x400b92) 

-- PC: (0x400b92) 

-- PC: (0x400b92) 

-- PC: (0x400b93) 

-- PC: (0x400b93) 

-- PC: (0x400b93) 

-- PC: (0x400b93) 

-- PC: (0x400b93) 

-- PC: (0x400b93) 

-- PC: (0x400b93) 

-- PC: (0x400b93) 

-- PC: (0x400d76) 

-- PC: (0x400d76) 

-- PC: (0x400d76) 

-- PC: (0x400d76) 

-- PC: (0x400d79) 

-- PC: (0x400d79) 

-- PC: (0x400d81) 

-- PC: (0x400d81) 

-- PC: (0x400d81) 

-- PC: (0x400e4e) 

-- PC: (0x400e4e) 

-- PC: (0x400e4e) 

-- PC: (0x400e4e) 

-- Sqsh -> ISN (84802)

-- Tick (120608500) -- ISN: (84800) : S -> (0x86) at (0x7fffffffecc8) -- Size = (8)-- PC: (0x400d81) 

 -- vaddr (0x7fffffffecc8) -- paddr (0xc5cc8) 

-- PC: (0x400e4e) 

-- PC: (0x400e4e) 

-- ReadReq [e40:e7f] IF Miss --  Latency: 502 

-- PC: (0x400d79) 

-- PC: (0x400d79) 

-- PC: (0x400d7c) 

-- PC: (0x400d7c) 

-- PC: (0x400d7c) 

-- PC: (0x400d7c) 

-- PC: (0x400d81) 

-- PC: (0x400d81) 

-- PC: (0x400d81) 

-- PC: (0x400d81) 

-- PC: (0x400d81) 

-- PC: (0x400d81) 

-- PC: (0x400d81) 

-- PC: (0x400d81) 

-- PC: (0x400d81) 

-- PC: (0x400d81) 

-- PC: (0x400d81) 

-- PC: (0x400d81) 

-- PC: (0x400e4e) 

-- PC: (0x400e4e) 

-- WriteReq [c5cc8:c5ccf] Hit -- Blk -> state: f (M) valid: 1 writable: 1 readable: 1 dirty: 1 | tag: 0x18 set: 0x173 way: 0 Latency: 2 

-- PC: (0x400e4e) 

-- PC: (0x400e4e) 

-- PC: (0x400e4e) 

-- PC: (0x400e4e) 

-- PC: (0x400e4e) 

-- PC: (0x400e4e) 

-- PC: (0x400e4e) 

-- PC: (0x400e52) 

-- PC: (0x400e52) 

-- PC: (0x400e52) 

-- PC: (0x400e52) 

-- PC: (0x400e52) 

-- PC: (0x400e52) 

-- PC: (0x400e52) 

-- PC: (0x400e52) 

-- PC: (0x400e52) 

-- PC: (0x400e52) 

-- PC: (0x400e52) 

-- PC: (0x400d86) 

-- PC: (0x400e52) 

-- PC: (0x400d86) 

-- PC: (0x400d86) 

-- PC: (0x400d86) 

-- PC: (0x400d86) 

-- PC: (0x400d86) 

-- ReadReq [d80:dbf] IF Hit -- Blk -> state: 7 (E) valid: 1 writable: 1 readable: 1 dirty: 0 | tag: 0x3 set: 0x6 way: 0 Latency: 2 

-- PC: (0x400d86) 

-- PC: (0x400d86) 

-- PC: (0x400d86) 

-- PC: (0x400d86) 

-- PC: (0x400d86) 

-- PC: (0x400d86) 

-- PC: (0x400d86) 

-- PC: (0x400d89) 

-- PC: (0x400d89) 

-- PC: (0x400d89) 

-- PC: (0x400d89) 

-- PC: (0x400d89) 

-- PC: (0x400d89) 

-- PC: (0x400d8c) 

-- PC: (0x400d8c) 

-- PC: (0x400d8c) 

-- PC: (0x400d8c) 

-- PC: (0x400d8c) 

-- PC: (0x400d8c) 

-- PC: (0x400d8c) 

-- PC: (0x400d8c) 

-- PC: (0x400d8c) 

-- PC: (0x400d8c) 

-- PC: (0x400d8e) 

-- PC: (0x400d8e) 

-- PC: (0x400d8e) 

-- PC: (0x400d8e) 

-- PC: (0x400d8e) 

-- PC: (0x400d8e) 

-- PC: (0x400d8e) 

-- PC: (0x400d8e) 

-- PC: (0x400d92) 

-- PC: (0x400d92) 

-- PC: (0x400d92) 

-- PC: (0x400d92) 

-- PC: (0x400d92) 

-- PC: (0x400d92) 

-- PC: (0x400d95) 

-- PC: (0x400d95) 

-- PC: (0x400d95) 

-- PC: (0x400d95) 

-- PC: (0x400d95) 

-- PC: (0x400d95) 

-- PC: (0x400d95) 

-- PC: (0x400d95) 

-- PC: (0x400d99) 

-- PC: (0x400d99) 

-- PC: (0x400d99) 

-- PC: (0x400d99) 

-- PC: (0x400d99) 

-- PC: (0x400d99) 

-- PC: (0x400d99) 

-- PC: (0x400d99) 

-- PC: (0x400d99) 

-- PC: (0x400d99) 

-- PC: (0x400d99) 

-- PC: (0x400d9f) 

-- PC: (0x400d9f) 

-- PC: (0x400d9f) 

-- PC: (0x400d9f) 

-- PC: (0x400d9f) 

-- PC: (0x400d9f) 

-- PC: (0x400d9f) 

-- PC: (0x400d9f) 

-- PC: (0x400d9f) 

-- PCa3[8056] access time => t2-t1 = 16
a3[8072] access time => t3-t2 = 117
: (0x400d9f) 

-- PC: (0x400da5) 

-- PC: (0x400da5) 

-- PC: (0x400da5) 

-- PC: (0x400da5) 

-- PC: (0x400da5) 

-- PC: (0x400da5) 

-- PC: (0x400da5) 

-- PC: (0x400da5) 

-- PC: (0x400da5) 

-- PC: (0x400da5) 

-- PC: (0x400da7) 

-- PC: (0x400da7) 

-- PC: (0x400da7) 

-- PC: (0x400da7) 

-- PC: (0x400da7) 

-- PC: (0x400da7) 

-- PC: (0x400da7) 

-- PC: (0x400da7) 

-- PC: (0x400dab) 

-- PC: (0x400dab) 

-- PC: (0x400dab) 

-- PC: (0x400dab) 

-- PC: (0x400dab) 

-- PC: (0x400dab) 

-- PC: (0x400dab) 

-- PC: (0x400dab) 

-- PC: (0x400dab) 

-- PC: (0x400dae) 

-- PC: (0x400dae) 

-- PC: (0x400dae) 

-- PC: (0x400dae) 

-- PC: (0x400dae) 

-- PC: (0x400dae) 

-- PC: (0x400dae) 

-- PC: (0x400dae) 

-- PC: (0x400db2) 

-- PC: (0x400db2) 

-- PC: (0x400db2) 

-- PC: (0x400db2) 

-- PC: (0x400db2) 

-- PC: (0x400db2) 

-- PC: (0x400db2) 

-- PC: (0x400db2) 

-- PC: (0x400db8) 

-- PC: (0x400db8) 

-- PC: (0x400db8) 

-- PC: (0x400db8) 

-- PC: (0x400db8) 

-- PC: (0x400db8) 

-- PC: (0x400db8) 

-- PC: (0x400dbe) 

-- PC: (0x400dbe) 

-- PC: (0x400dbe) 

-- PC: (0x400dbe) 

-- PC: (0x400dbe) 

-- PC: (0x400dbe) 

-- PC: (0x400dbe) 

-- PC: (0x400dbe) 

-- PC: (0x400dbe) 

-- PC: (0x400dbe) 

-- PC: (0x400e52) 

-- PC: (0x400e52) 

-- PC: (0x400dbe) 

-- PC: (0x400dbe) 

-- PC: (0x400dbe) 

-- PC: (0x400dbe) 

-- PC: (0x400dc0) 

-- PC: (0x400dc0) 

-- PC: (0x400dc0) 

-- PC: (0x400dc0) 

-- PC: (0x400dc0) 

-- PC: (0x400dc0) 

-- ReadReq [dc0:dff] IF Hit -- Blk -> state: 7 (E) valid: 1 writable: 1 readable: 1 dirty: 0 | tag: 0x3 set: 0x7 way: 0 Latency: 2 

-- Tick (120662500) -- ISN: (84829) : L from (0x7fffffffecc8) -- of Size = (8)-- PC: (0x400e52) 

 -- vaddr (0x7fffffffecc8) -- paddr (0xc5cc8) 

-- ReadReq [c5cc8:c5ccf] Hit -- Blk -> state: f (M) valid: 1 writable: 1 readable: 1 dirty: 1 | tag: 0x18 set: 0x173 way: 0 Latency: 2 

-- PC: (0x400dc0) 

-- PC: (0x400dc0) 

-- PC: (0x400dc0) 

-- PC: (0x400dc0) 

-- PC: (0x400dc4) 

-- PC: (0x400dc4) 

-- PC: (0x400dc4) 

-- PC: (0x400dc4) 

-- PC: (0x400dc4) 

-- PC: (0x400dc4) 

-- PC: (0x400dc7) 

-- PC: (0x400dc7) 

-- PC: (0x400dc7) 

-- PC: (0x400dc7) 

-- PC: (0x400dc7) 

-- PC: (0x400dc7) 

-- PC: (0x400dc7) 

-- PC: (0x400dc7) 

-- PC: (0x400dcb) 

-- PC: (0x400dcb) 

-- PC: (0x400dcb) 

-- PC: (0x400dcb) 

-- PC: (0x400dcb) 

-- PC: (0x400dcb) 

-- PC: (0x400dcf) 

-- PC: (0x400dcf) 

-- PC: (0x400dcf) 

-- PC: (0x400dcf) 

-- PC: (0x400dcf) 

-- PC: (0x400dcf) 

-- PC: (0x400dcf) 

-- PC: (0x400dcf) 

-- PC: (0x400dcf) 

-- PC: (0x400dcf) 

-- PC: (0x400dd3) 

-- PC: (0x400dd3) 

-- PC: (0x400dd3) 

-- PC: (0x400dd3) 

-- PC: (0x400dd3) 

-- PC: (0x400dd3) 

-- PC: (0x400dd6) 

-- PC: (0x400dd6) 

-- PC: (0x400dd6) 

-- PC: (0x400dd6) 

-- PC: (0x400dd6) 

-- PC: (0x400dd6) 

-- PC: (0x400dd6) 

-- PC: (0x400dd6) 

-- PC: (0x400dda) 

-- PC: (0x400dda) 

-- PC: (0x400dda) 

HERE 2 : enable_memreq_tracing = 0
Exiting @ tick 137611000 because exiting with last active thread context
