
---------- Begin Simulation Statistics ----------
final_tick                                  139564000                       # Number of ticks from beginning of simulation (restored from checkpoints and never reset)
host_inst_rate                                  24223                       # Simulator instruction rate (inst/s)
host_mem_usage                                4362968                       # Number of bytes of host memory used
host_op_rate                                    47689                       # Simulator op (including micro ops) rate (op/s)
host_seconds                                     1.07                       # Real time elapsed on the host
host_tick_rate                              130925365                       # Simulator tick rate (ticks/s)
sim_freq                                 1000000000000                       # Frequency of simulated ticks
sim_insts                                       25817                       # Number of instructions simulated
sim_ops                                         50834                       # Number of ops (including micro ops) simulated
sim_seconds                                  0.000140                       # Number of seconds simulated
sim_ticks                                   139564000                       # Number of ticks simulated
system.cpu.branchPred.BTBCorrect                    0                       # Number of correct BTB predictions (this stat may not work properly.
system.cpu.branchPred.BTBHitPct              0.000000                       # BTB Hit Percentage
system.cpu.branchPred.BTBHits                       0                       # Number of BTB hits
system.cpu.branchPred.BTBLookups                 8371                       # Number of BTB lookups
system.cpu.branchPred.RASInCorrect                  8                       # Number of incorrect RAS predictions.
system.cpu.branchPred.condIncorrect              1350                       # Number of conditional branches incorrect
system.cpu.branchPred.condPredicted              8345                       # Number of conditional branches predicted
system.cpu.branchPred.indirectHits               1813                       # Number of indirect target hits.
system.cpu.branchPred.indirectLookups            8371                       # Number of indirect predictor lookups.
system.cpu.branchPred.indirectMisses             6558                       # Number of indirect misses.
system.cpu.branchPred.lookups                   10138                       # Number of BP lookups
system.cpu.branchPred.usedRAS                     723                       # Number of times the RAS was used to get a target.
system.cpu.branchPredindirectMispredicted         1125                       # Number of mispredicted indirect branches.
system.cpu.cc_regfile_reads                     34236                       # number of cc regfile reads
system.cpu.cc_regfile_writes                    18740                       # number of cc regfile writes
system.cpu.commit.amos                              0                       # Number of atomic instructions committed
system.cpu.commit.branchMispredicts              1593                       # The number of times a branch was mispredicted
system.cpu.commit.branches                       5995                       # Number of branches committed
system.cpu.commit.bw_lim_events                  2286                       # number cycles where commit BW limit reached
system.cpu.commit.commitNonSpecStalls              29                       # The number of times commit has been forced to stall to communicate backwards
system.cpu.commit.commitSquashedInsts           25211                       # The number of squashed insts skipped by commit
system.cpu.commit.committedInsts                25817                       # Number of instructions committed
system.cpu.commit.committedOps                  50834                       # Number of ops (including micro ops) committed
system.cpu.commit.committed_per_cycle::samples        99117                       # Number of insts commited each cycle
system.cpu.commit.committed_per_cycle::mean     0.512869                       # Number of insts commited each cycle
system.cpu.commit.committed_per_cycle::stdev     1.558227                       # Number of insts commited each cycle
system.cpu.commit.committed_per_cycle::underflows            0      0.00%      0.00% # Number of insts commited each cycle
system.cpu.commit.committed_per_cycle::0        84735     85.49%     85.49% # Number of insts commited each cycle
system.cpu.commit.committed_per_cycle::1         3754      3.79%     89.28% # Number of insts commited each cycle
system.cpu.commit.committed_per_cycle::2         2371      2.39%     91.67% # Number of insts commited each cycle
system.cpu.commit.committed_per_cycle::3         3008      3.03%     94.70% # Number of insts commited each cycle
system.cpu.commit.committed_per_cycle::4         1326      1.34%     96.04% # Number of insts commited each cycle
system.cpu.commit.committed_per_cycle::5          635      0.64%     96.68% # Number of insts commited each cycle
system.cpu.commit.committed_per_cycle::6          467      0.47%     97.15% # Number of insts commited each cycle
system.cpu.commit.committed_per_cycle::7          535      0.54%     97.69% # Number of insts commited each cycle
system.cpu.commit.committed_per_cycle::8         2286      2.31%    100.00% # Number of insts commited each cycle
system.cpu.commit.committed_per_cycle::overflows            0      0.00%    100.00% # Number of insts commited each cycle
system.cpu.commit.committed_per_cycle::min_value            0                       # Number of insts commited each cycle
system.cpu.commit.committed_per_cycle::max_value            8                       # Number of insts commited each cycle
system.cpu.commit.committed_per_cycle::total        99117                       # Number of insts commited each cycle
system.cpu.commit.fp_insts                       2691                       # Number of committed floating point instructions.
system.cpu.commit.function_calls                  455                       # Number of function calls committed.
system.cpu.commit.int_insts                     48712                       # Number of committed integer instructions.
system.cpu.commit.loads                          5899                       # Number of loads committed
system.cpu.commit.membars                           0                       # Number of memory barriers committed
system.cpu.commit.op_class_0::No_OpClass          151      0.30%      0.30% # Class of committed instruction
system.cpu.commit.op_class_0::IntAlu            39341     77.39%     77.69% # Class of committed instruction
system.cpu.commit.op_class_0::IntMult               4      0.01%     77.70% # Class of committed instruction
system.cpu.commit.op_class_0::IntDiv              140      0.28%     77.97% # Class of committed instruction
system.cpu.commit.op_class_0::FloatAdd             28      0.06%     78.03% # Class of committed instruction
system.cpu.commit.op_class_0::FloatCmp              0      0.00%     78.03% # Class of committed instruction
system.cpu.commit.op_class_0::FloatCvt              0      0.00%     78.03% # Class of committed instruction
system.cpu.commit.op_class_0::FloatMult             0      0.00%     78.03% # Class of committed instruction
system.cpu.commit.op_class_0::FloatMultAcc            0      0.00%     78.03% # Class of committed instruction
system.cpu.commit.op_class_0::FloatDiv              0      0.00%     78.03% # Class of committed instruction
system.cpu.commit.op_class_0::FloatMisc             0      0.00%     78.03% # Class of committed instruction
system.cpu.commit.op_class_0::FloatSqrt             0      0.00%     78.03% # Class of committed instruction
system.cpu.commit.op_class_0::SimdAdd             374      0.74%     78.76% # Class of committed instruction
system.cpu.commit.op_class_0::SimdAddAcc            0      0.00%     78.76% # Class of committed instruction
system.cpu.commit.op_class_0::SimdAlu             194      0.38%     79.14% # Class of committed instruction
system.cpu.commit.op_class_0::SimdCmp               0      0.00%     79.14% # Class of committed instruction
system.cpu.commit.op_class_0::SimdCvt             288      0.57%     79.71% # Class of committed instruction
system.cpu.commit.op_class_0::SimdMisc            430      0.85%     80.56% # Class of committed instruction
system.cpu.commit.op_class_0::SimdMult              0      0.00%     80.56% # Class of committed instruction
system.cpu.commit.op_class_0::SimdMultAcc            0      0.00%     80.56% # Class of committed instruction
system.cpu.commit.op_class_0::SimdShift           186      0.37%     80.92% # Class of committed instruction
system.cpu.commit.op_class_0::SimdShiftAcc            0      0.00%     80.92% # Class of committed instruction
system.cpu.commit.op_class_0::SimdDiv               0      0.00%     80.92% # Class of committed instruction
system.cpu.commit.op_class_0::SimdSqrt              0      0.00%     80.92% # Class of committed instruction
system.cpu.commit.op_class_0::SimdFloatAdd            0      0.00%     80.92% # Class of committed instruction
system.cpu.commit.op_class_0::SimdFloatAlu            0      0.00%     80.92% # Class of committed instruction
system.cpu.commit.op_class_0::SimdFloatCmp            0      0.00%     80.92% # Class of committed instruction
system.cpu.commit.op_class_0::SimdFloatCvt            0      0.00%     80.92% # Class of committed instruction
system.cpu.commit.op_class_0::SimdFloatDiv            0      0.00%     80.92% # Class of committed instruction
system.cpu.commit.op_class_0::SimdFloatMisc            0      0.00%     80.92% # Class of committed instruction
system.cpu.commit.op_class_0::SimdFloatMult            0      0.00%     80.92% # Class of committed instruction
system.cpu.commit.op_class_0::SimdFloatMultAcc            0      0.00%     80.92% # Class of committed instruction
system.cpu.commit.op_class_0::SimdFloatSqrt            0      0.00%     80.92% # Class of committed instruction
system.cpu.commit.op_class_0::SimdReduceAdd            0      0.00%     80.92% # Class of committed instruction
system.cpu.commit.op_class_0::SimdReduceAlu            0      0.00%     80.92% # Class of committed instruction
system.cpu.commit.op_class_0::SimdReduceCmp            0      0.00%     80.92% # Class of committed instruction
system.cpu.commit.op_class_0::SimdFloatReduceAdd            0      0.00%     80.92% # Class of committed instruction
system.cpu.commit.op_class_0::SimdFloatReduceCmp            0      0.00%     80.92% # Class of committed instruction
system.cpu.commit.op_class_0::SimdAes               0      0.00%     80.92% # Class of committed instruction
system.cpu.commit.op_class_0::SimdAesMix            0      0.00%     80.92% # Class of committed instruction
system.cpu.commit.op_class_0::SimdSha1Hash            0      0.00%     80.92% # Class of committed instruction
system.cpu.commit.op_class_0::SimdSha1Hash2            0      0.00%     80.92% # Class of committed instruction
system.cpu.commit.op_class_0::SimdSha256Hash            0      0.00%     80.92% # Class of committed instruction
system.cpu.commit.op_class_0::SimdSha256Hash2            0      0.00%     80.92% # Class of committed instruction
system.cpu.commit.op_class_0::SimdShaSigma2            0      0.00%     80.92% # Class of committed instruction
system.cpu.commit.op_class_0::SimdShaSigma3            0      0.00%     80.92% # Class of committed instruction
system.cpu.commit.op_class_0::SimdPredAlu            0      0.00%     80.92% # Class of committed instruction
system.cpu.commit.op_class_0::MemRead            5739     11.29%     92.21% # Class of committed instruction
system.cpu.commit.op_class_0::MemWrite           3370      6.63%     98.84% # Class of committed instruction
system.cpu.commit.op_class_0::FloatMemRead          160      0.31%     99.16% # Class of committed instruction
system.cpu.commit.op_class_0::FloatMemWrite          429      0.84%    100.00% # Class of committed instruction
system.cpu.commit.op_class_0::IprAccess             0      0.00%    100.00% # Class of committed instruction
system.cpu.commit.op_class_0::InstPrefetch            0      0.00%    100.00% # Class of committed instruction
system.cpu.commit.op_class_0::total             50834                       # Class of committed instruction
system.cpu.commit.refs                           9698                       # Number of memory references committed
system.cpu.commit.swp_count                         0                       # Number of s/w prefetches committed
system.cpu.commit.vec_insts                         0                       # Number of committed Vector instructions.
system.cpu.committedInsts                       25817                       # Number of Instructions Simulated
system.cpu.committedOps                         50834                       # Number of Ops (including micro ops) Simulated
system.cpu.cpi                              10.811829                       # CPI: Cycles Per Instruction
system.cpu.cpi_total                        10.811829                       # CPI: Total CPI of All Threads
system.cpu.decode.BlockedCycles                 17653                       # Number of cycles decode is blocked
system.cpu.decode.DecodedInsts                  82234                       # Number of instructions handled by decode
system.cpu.decode.IdleCycles                    72052                       # Number of cycles decode is idle
system.cpu.decode.RunCycles                     11834                       # Number of cycles decode is running
system.cpu.decode.SquashCycles                   1601                       # Number of cycles decode is squashing
system.cpu.decode.UnblockCycles                   598                       # Number of cycles decode is unblocking
system.cpu.dtb.rdAccesses                        7880                       # TLB accesses on read requests
system.cpu.dtb.rdMisses                            82                       # TLB misses on read requests
system.cpu.dtb.wrAccesses                        4677                       # TLB accesses on write requests
system.cpu.dtb.wrMisses                            17                       # TLB misses on write requests
system.cpu.fetch.Branches                       10138                       # Number of branches that fetch encountered
system.cpu.fetch.CacheLines                      6108                       # Number of cache lines fetched
system.cpu.fetch.Cycles                         23291                       # Number of cycles fetch has run and was not squashing or blocked
system.cpu.fetch.IcacheSquashes                  1027                       # Number of outstanding Icache misses that were squashed
system.cpu.fetch.Insts                          43142                       # Number of instructions fetch has processed
system.cpu.fetch.MiscStallCycles                  263                       # Number of cycles fetch has spent waiting on interrupts, or bad addresses, or out of MSHRs
system.cpu.fetch.PendingQuiesceStallCycles            6                       # Number of stall cycles due to pending quiesce instructions
system.cpu.fetch.PendingTrapStallCycles          1576                       # Number of stall cycles due to pending traps
system.cpu.fetch.SquashCycles                    3202                       # Number of cycles fetch has spent squashing
system.cpu.fetch.branchRate                  0.036320                       # Number of branch fetches per cycle
system.cpu.fetch.icacheStallCycles              77001                       # Number of cycles fetch is stalled on an Icache miss
system.cpu.fetch.predictedBranches               2536                       # Number of branches that fetch has predicted taken
system.cpu.fetch.rate                        0.154559                       # Number of inst fetches per cycle
system.cpu.fetch.rateDist::samples             103738                       # Number of instructions fetched each cycle (Total)
system.cpu.fetch.rateDist::mean              0.818687                       # Number of instructions fetched each cycle (Total)
system.cpu.fetch.rateDist::stdev             2.306938                       # Number of instructions fetched each cycle (Total)
system.cpu.fetch.rateDist::underflows               0      0.00%      0.00% # Number of instructions fetched each cycle (Total)
system.cpu.fetch.rateDist::0                    90822     87.55%     87.55% # Number of instructions fetched each cycle (Total)
system.cpu.fetch.rateDist::1                      515      0.50%     88.05% # Number of instructions fetched each cycle (Total)
system.cpu.fetch.rateDist::2                      739      0.71%     88.76% # Number of instructions fetched each cycle (Total)
system.cpu.fetch.rateDist::3                      659      0.64%     89.39% # Number of instructions fetched each cycle (Total)
system.cpu.fetch.rateDist::4                      776      0.75%     90.14% # Number of instructions fetched each cycle (Total)
system.cpu.fetch.rateDist::5                      507      0.49%     90.63% # Number of instructions fetched each cycle (Total)
system.cpu.fetch.rateDist::6                      821      0.79%     91.42% # Number of instructions fetched each cycle (Total)
system.cpu.fetch.rateDist::7                      798      0.77%     92.19% # Number of instructions fetched each cycle (Total)
system.cpu.fetch.rateDist::8                     8101      7.81%    100.00% # Number of instructions fetched each cycle (Total)
system.cpu.fetch.rateDist::overflows                0      0.00%    100.00% # Number of instructions fetched each cycle (Total)
system.cpu.fetch.rateDist::min_value                0                       # Number of instructions fetched each cycle (Total)
system.cpu.fetch.rateDist::max_value                8                       # Number of instructions fetched each cycle (Total)
system.cpu.fetch.rateDist::total               103738                       # Number of instructions fetched each cycle (Total)
system.cpu.fp_regfile_reads                      5298                       # number of floating regfile reads
system.cpu.fp_regfile_writes                     2224                       # number of floating regfile writes
system.cpu.idleCycles                          175391                       # Total number of cycles that the CPU has spent unscheduled due to idling
system.cpu.iew.branchMispredicts                 1848                       # Number of branch mispredicts detected at execute
system.cpu.iew.exec_branches                     7354                       # Number of branches executed
system.cpu.iew.exec_nop                             0                       # number of nop insts executed
system.cpu.iew.exec_rate                     0.241945                       # Inst execution rate
system.cpu.iew.exec_refs                        12606                       # number of memory reference insts executed
system.cpu.iew.exec_stores                       4676                       # Number of stores executed
system.cpu.iew.exec_swp                             0                       # number of swp insts executed
system.cpu.iew.iewBlockCycles                    4740                       # Number of cycles IEW is blocking
system.cpu.iew.iewDispLoadInsts                  8970                       # Number of dispatched load instructions
system.cpu.iew.iewDispNonSpecInsts                 51                       # Number of dispatched non-speculative instructions
system.cpu.iew.iewDispSquashedInsts                17                       # Number of squashed instructions skipped by dispatch
system.cpu.iew.iewDispStoreInsts                 5419                       # Number of dispatched store instructions
system.cpu.iew.iewDispatchedInsts               76061                       # Number of instructions dispatched to IQ
system.cpu.iew.iewExecLoadInsts                  7930                       # Number of load instructions executed
system.cpu.iew.iewExecSquashedInsts              1743                       # Number of squashed instructions skipped in execute
system.cpu.iew.iewExecutedInsts                 67534                       # Number of executed instructions
system.cpu.iew.iewIQFullEvents                     11                       # Number of times the IQ has become full, causing a stall
system.cpu.iew.iewIdleCycles                        0                       # Number of cycles IEW is idle
system.cpu.iew.iewLSQFullEvents                   842                       # Number of times the LSQ has become full, causing a stall
system.cpu.iew.iewSquashCycles                   1601                       # Number of cycles IEW is squashing
system.cpu.iew.iewUnblockCycles                   856                       # Number of cycles IEW is unblocking
system.cpu.iew.lsq.thread0.blockedLoads             0                       # Number of blocked loads due to partial load-store forwarding
system.cpu.iew.lsq.thread0.cacheBlocked            17                       # Number of times an access to memory failed due to the cache being blocked
system.cpu.iew.lsq.thread0.forwLoads              771                       # Number of loads that had data forwarded from stores
system.cpu.iew.lsq.thread0.ignoredResponses           20                       # Number of memory responses ignored because the instruction is squashed
system.cpu.iew.lsq.thread0.invAddrLoads             0                       # Number of loads ignored due to an invalid address
system.cpu.iew.lsq.thread0.invAddrSwpfs             0                       # Number of software prefetches ignored due to an invalid address
system.cpu.iew.lsq.thread0.memOrderViolation           13                       # Number of memory ordering violations
system.cpu.iew.lsq.thread0.rescheduledLoads            2                       # Number of loads that were rescheduled
system.cpu.iew.lsq.thread0.squashedLoads         3069                       # Number of loads squashed
system.cpu.iew.lsq.thread0.squashedStores         1618                       # Number of stores squashed
system.cpu.iew.memOrderViolationEvents             13                       # Number of memory order violations
system.cpu.iew.predictedNotTakenIncorrect         1741                       # Number of branches that were predicted not taken incorrectly
system.cpu.iew.predictedTakenIncorrect            107                       # Number of branches that were predicted taken incorrectly
system.cpu.iew.wb_consumers                     69060                       # num instructions consuming a value
system.cpu.iew.wb_count                         66137                       # cumulative count of insts written-back
system.cpu.iew.wb_fanout                     0.646684                       # average fanout of values written-back
system.cpu.iew.wb_producers                     44660                       # num instructions producing a value
system.cpu.iew.wb_rate                       0.236941                       # insts written-back per cycle
system.cpu.iew.wb_sent                          66625                       # cumulative count of insts sent to commit
system.cpu.int_regfile_reads                    92234                       # number of integer regfile reads
system.cpu.int_regfile_writes                   51896                       # number of integer regfile writes
system.cpu.ipc                               0.092491                       # IPC: Instructions Per Cycle
system.cpu.ipc_total                         0.092491                       # IPC: Total IPC of All Threads
system.cpu.iq.FU_type_0::No_OpClass               760      1.10%      1.10% # Type of FU issued
system.cpu.iq.FU_type_0::IntAlu                 53647     77.43%     78.53% # Type of FU issued
system.cpu.iq.FU_type_0::IntMult                    4      0.01%     78.54% # Type of FU issued
system.cpu.iq.FU_type_0::IntDiv                   227      0.33%     78.86% # Type of FU issued
system.cpu.iq.FU_type_0::FloatAdd                  32      0.05%     78.91% # Type of FU issued
system.cpu.iq.FU_type_0::FloatCmp                   0      0.00%     78.91% # Type of FU issued
system.cpu.iq.FU_type_0::FloatCvt                   0      0.00%     78.91% # Type of FU issued
system.cpu.iq.FU_type_0::FloatMult                  0      0.00%     78.91% # Type of FU issued
system.cpu.iq.FU_type_0::FloatMultAcc               0      0.00%     78.91% # Type of FU issued
system.cpu.iq.FU_type_0::FloatDiv                   0      0.00%     78.91% # Type of FU issued
system.cpu.iq.FU_type_0::FloatMisc                  0      0.00%     78.91% # Type of FU issued
system.cpu.iq.FU_type_0::FloatSqrt                  0      0.00%     78.91% # Type of FU issued
system.cpu.iq.FU_type_0::SimdAdd                  378      0.55%     79.45% # Type of FU issued
system.cpu.iq.FU_type_0::SimdAddAcc                 0      0.00%     79.45% # Type of FU issued
system.cpu.iq.FU_type_0::SimdAlu                  228      0.33%     79.78% # Type of FU issued
system.cpu.iq.FU_type_0::SimdCmp                    0      0.00%     79.78% # Type of FU issued
system.cpu.iq.FU_type_0::SimdCvt                  310      0.45%     80.23% # Type of FU issued
system.cpu.iq.FU_type_0::SimdMisc                 445      0.64%     80.87% # Type of FU issued
system.cpu.iq.FU_type_0::SimdMult                   0      0.00%     80.87% # Type of FU issued
system.cpu.iq.FU_type_0::SimdMultAcc                0      0.00%     80.87% # Type of FU issued
system.cpu.iq.FU_type_0::SimdShift                186      0.27%     81.14% # Type of FU issued
system.cpu.iq.FU_type_0::SimdShiftAcc               0      0.00%     81.14% # Type of FU issued
system.cpu.iq.FU_type_0::SimdDiv                    0      0.00%     81.14% # Type of FU issued
system.cpu.iq.FU_type_0::SimdSqrt                   0      0.00%     81.14% # Type of FU issued
system.cpu.iq.FU_type_0::SimdFloatAdd               0      0.00%     81.14% # Type of FU issued
system.cpu.iq.FU_type_0::SimdFloatAlu               0      0.00%     81.14% # Type of FU issued
system.cpu.iq.FU_type_0::SimdFloatCmp               0      0.00%     81.14% # Type of FU issued
system.cpu.iq.FU_type_0::SimdFloatCvt               0      0.00%     81.14% # Type of FU issued
system.cpu.iq.FU_type_0::SimdFloatDiv               0      0.00%     81.14% # Type of FU issued
system.cpu.iq.FU_type_0::SimdFloatMisc              0      0.00%     81.14% # Type of FU issued
system.cpu.iq.FU_type_0::SimdFloatMult              0      0.00%     81.14% # Type of FU issued
system.cpu.iq.FU_type_0::SimdFloatMultAcc            0      0.00%     81.14% # Type of FU issued
system.cpu.iq.FU_type_0::SimdFloatSqrt              0      0.00%     81.14% # Type of FU issued
system.cpu.iq.FU_type_0::SimdReduceAdd              0      0.00%     81.14% # Type of FU issued
system.cpu.iq.FU_type_0::SimdReduceAlu              0      0.00%     81.14% # Type of FU issued
system.cpu.iq.FU_type_0::SimdReduceCmp              0      0.00%     81.14% # Type of FU issued
system.cpu.iq.FU_type_0::SimdFloatReduceAdd            0      0.00%     81.14% # Type of FU issued
system.cpu.iq.FU_type_0::SimdFloatReduceCmp            0      0.00%     81.14% # Type of FU issued
system.cpu.iq.FU_type_0::SimdAes                    0      0.00%     81.14% # Type of FU issued
system.cpu.iq.FU_type_0::SimdAesMix                 0      0.00%     81.14% # Type of FU issued
system.cpu.iq.FU_type_0::SimdSha1Hash               0      0.00%     81.14% # Type of FU issued
system.cpu.iq.FU_type_0::SimdSha1Hash2              0      0.00%     81.14% # Type of FU issued
system.cpu.iq.FU_type_0::SimdSha256Hash             0      0.00%     81.14% # Type of FU issued
system.cpu.iq.FU_type_0::SimdSha256Hash2            0      0.00%     81.14% # Type of FU issued
system.cpu.iq.FU_type_0::SimdShaSigma2              0      0.00%     81.14% # Type of FU issued
system.cpu.iq.FU_type_0::SimdShaSigma3              0      0.00%     81.14% # Type of FU issued
system.cpu.iq.FU_type_0::SimdPredAlu                0      0.00%     81.14% # Type of FU issued
system.cpu.iq.FU_type_0::MemRead                 7997     11.54%     92.68% # Type of FU issued
system.cpu.iq.FU_type_0::MemWrite                4364      6.30%     98.98% # Type of FU issued
system.cpu.iq.FU_type_0::FloatMemRead             229      0.33%     99.31% # Type of FU issued
system.cpu.iq.FU_type_0::FloatMemWrite            475      0.69%    100.00% # Type of FU issued
system.cpu.iq.FU_type_0::IprAccess                  0      0.00%    100.00% # Type of FU issued
system.cpu.iq.FU_type_0::InstPrefetch               0      0.00%    100.00% # Type of FU issued
system.cpu.iq.FU_type_0::total                  69282                       # Type of FU issued
system.cpu.iq.fp_alu_accesses                    2949                       # Number of floating point alu accesses
system.cpu.iq.fp_inst_queue_reads                5881                       # Number of floating instruction queue reads
system.cpu.iq.fp_inst_queue_wakeup_accesses         2850                       # Number of floating instruction queue wakeup accesses
system.cpu.iq.fp_inst_queue_writes               3301                       # Number of floating instruction queue writes
system.cpu.iq.fu_busy_cnt                         748                       # FU busy when requested
system.cpu.iq.fu_busy_rate                   0.010796                       # FU busy rate (busy events/executed inst)
system.cpu.iq.fu_full::No_OpClass                   0      0.00%      0.00% # attempts to use FU when none available
system.cpu.iq.fu_full::IntAlu                     645     86.23%     86.23% # attempts to use FU when none available
system.cpu.iq.fu_full::IntMult                      0      0.00%     86.23% # attempts to use FU when none available
system.cpu.iq.fu_full::IntDiv                       0      0.00%     86.23% # attempts to use FU when none available
system.cpu.iq.fu_full::FloatAdd                     0      0.00%     86.23% # attempts to use FU when none available
system.cpu.iq.fu_full::FloatCmp                     0      0.00%     86.23% # attempts to use FU when none available
system.cpu.iq.fu_full::FloatCvt                     0      0.00%     86.23% # attempts to use FU when none available
system.cpu.iq.fu_full::FloatMult                    0      0.00%     86.23% # attempts to use FU when none available
system.cpu.iq.fu_full::FloatMultAcc                 0      0.00%     86.23% # attempts to use FU when none available
system.cpu.iq.fu_full::FloatDiv                     0      0.00%     86.23% # attempts to use FU when none available
system.cpu.iq.fu_full::FloatMisc                    0      0.00%     86.23% # attempts to use FU when none available
system.cpu.iq.fu_full::FloatSqrt                    0      0.00%     86.23% # attempts to use FU when none available
system.cpu.iq.fu_full::SimdAdd                      0      0.00%     86.23% # attempts to use FU when none available
system.cpu.iq.fu_full::SimdAddAcc                   0      0.00%     86.23% # attempts to use FU when none available
system.cpu.iq.fu_full::SimdAlu                     10      1.34%     87.57% # attempts to use FU when none available
system.cpu.iq.fu_full::SimdCmp                      0      0.00%     87.57% # attempts to use FU when none available
system.cpu.iq.fu_full::SimdCvt                      6      0.80%     88.37% # attempts to use FU when none available
system.cpu.iq.fu_full::SimdMisc                     9      1.20%     89.57% # attempts to use FU when none available
system.cpu.iq.fu_full::SimdMult                     0      0.00%     89.57% # attempts to use FU when none available
system.cpu.iq.fu_full::SimdMultAcc                  0      0.00%     89.57% # attempts to use FU when none available
system.cpu.iq.fu_full::SimdShift                    0      0.00%     89.57% # attempts to use FU when none available
system.cpu.iq.fu_full::SimdShiftAcc                 0      0.00%     89.57% # attempts to use FU when none available
system.cpu.iq.fu_full::SimdDiv                      0      0.00%     89.57% # attempts to use FU when none available
system.cpu.iq.fu_full::SimdSqrt                     0      0.00%     89.57% # attempts to use FU when none available
system.cpu.iq.fu_full::SimdFloatAdd                 0      0.00%     89.57% # attempts to use FU when none available
system.cpu.iq.fu_full::SimdFloatAlu                 0      0.00%     89.57% # attempts to use FU when none available
system.cpu.iq.fu_full::SimdFloatCmp                 0      0.00%     89.57% # attempts to use FU when none available
system.cpu.iq.fu_full::SimdFloatCvt                 0      0.00%     89.57% # attempts to use FU when none available
system.cpu.iq.fu_full::SimdFloatDiv                 0      0.00%     89.57% # attempts to use FU when none available
system.cpu.iq.fu_full::SimdFloatMisc                0      0.00%     89.57% # attempts to use FU when none available
system.cpu.iq.fu_full::SimdFloatMult                0      0.00%     89.57% # attempts to use FU when none available
system.cpu.iq.fu_full::SimdFloatMultAcc             0      0.00%     89.57% # attempts to use FU when none available
system.cpu.iq.fu_full::SimdFloatSqrt                0      0.00%     89.57% # attempts to use FU when none available
system.cpu.iq.fu_full::SimdReduceAdd                0      0.00%     89.57% # attempts to use FU when none available
system.cpu.iq.fu_full::SimdReduceAlu                0      0.00%     89.57% # attempts to use FU when none available
system.cpu.iq.fu_full::SimdReduceCmp                0      0.00%     89.57% # attempts to use FU when none available
system.cpu.iq.fu_full::SimdFloatReduceAdd            0      0.00%     89.57% # attempts to use FU when none available
system.cpu.iq.fu_full::SimdFloatReduceCmp            0      0.00%     89.57% # attempts to use FU when none available
system.cpu.iq.fu_full::SimdAes                      0      0.00%     89.57% # attempts to use FU when none available
system.cpu.iq.fu_full::SimdAesMix                   0      0.00%     89.57% # attempts to use FU when none available
system.cpu.iq.fu_full::SimdSha1Hash                 0      0.00%     89.57% # attempts to use FU when none available
system.cpu.iq.fu_full::SimdSha1Hash2                0      0.00%     89.57% # attempts to use FU when none available
system.cpu.iq.fu_full::SimdSha256Hash               0      0.00%     89.57% # attempts to use FU when none available
system.cpu.iq.fu_full::SimdSha256Hash2              0      0.00%     89.57% # attempts to use FU when none available
system.cpu.iq.fu_full::SimdShaSigma2                0      0.00%     89.57% # attempts to use FU when none available
system.cpu.iq.fu_full::SimdShaSigma3                0      0.00%     89.57% # attempts to use FU when none available
system.cpu.iq.fu_full::SimdPredAlu                  0      0.00%     89.57% # attempts to use FU when none available
system.cpu.iq.fu_full::MemRead                     21      2.81%     92.38% # attempts to use FU when none available
system.cpu.iq.fu_full::MemWrite                    29      3.88%     96.26% # attempts to use FU when none available
system.cpu.iq.fu_full::FloatMemRead                 8      1.07%     97.33% # attempts to use FU when none available
system.cpu.iq.fu_full::FloatMemWrite               20      2.67%    100.00% # attempts to use FU when none available
system.cpu.iq.fu_full::IprAccess                    0      0.00%    100.00% # attempts to use FU when none available
system.cpu.iq.fu_full::InstPrefetch                 0      0.00%    100.00% # attempts to use FU when none available
system.cpu.iq.int_alu_accesses                  66321                       # Number of integer alu accesses
system.cpu.iq.int_inst_queue_reads             237327                       # Number of integer instruction queue reads
system.cpu.iq.int_inst_queue_wakeup_accesses        63287                       # Number of integer instruction queue wakeup accesses
system.cpu.iq.int_inst_queue_writes             97983                       # Number of integer instruction queue writes
system.cpu.iq.iqInstsAdded                      75986                       # Number of instructions added to the IQ (excludes non-spec)
system.cpu.iq.iqInstsIssued                     69282                       # Number of instructions issued
system.cpu.iq.iqNonSpecInstsAdded                  75                       # Number of non-speculative instructions added to the IQ
system.cpu.iq.iqSquashedInstsExamined           25210                       # Number of squashed instructions iterated over during squash; mainly for profiling
system.cpu.iq.iqSquashedInstsIssued               163                       # Number of squashed instructions issued
system.cpu.iq.iqSquashedNonSpecRemoved             46                       # Number of squashed non-spec instructions that were removed
system.cpu.iq.iqSquashedOperandsExamined        30424                       # Number of squashed operands that are examined and possibly removed from graph
system.cpu.iq.issued_per_cycle::samples        103738                       # Number of insts issued each cycle
system.cpu.iq.issued_per_cycle::mean         0.667856                       # Number of insts issued each cycle
system.cpu.iq.issued_per_cycle::stdev        1.632957                       # Number of insts issued each cycle
system.cpu.iq.issued_per_cycle::underflows            0      0.00%      0.00% # Number of insts issued each cycle
system.cpu.iq.issued_per_cycle::0               83050     80.06%     80.06% # Number of insts issued each cycle
system.cpu.iq.issued_per_cycle::1                5432      5.24%     85.29% # Number of insts issued each cycle
system.cpu.iq.issued_per_cycle::2                3796      3.66%     88.95% # Number of insts issued each cycle
system.cpu.iq.issued_per_cycle::3                2583      2.49%     91.44% # Number of insts issued each cycle
system.cpu.iq.issued_per_cycle::4                2562      2.47%     93.91% # Number of insts issued each cycle
system.cpu.iq.issued_per_cycle::5                2293      2.21%     96.12% # Number of insts issued each cycle
system.cpu.iq.issued_per_cycle::6                2001      1.93%     98.05% # Number of insts issued each cycle
system.cpu.iq.issued_per_cycle::7                1378      1.33%     99.38% # Number of insts issued each cycle
system.cpu.iq.issued_per_cycle::8                 643      0.62%    100.00% # Number of insts issued each cycle
system.cpu.iq.issued_per_cycle::overflows            0      0.00%    100.00% # Number of insts issued each cycle
system.cpu.iq.issued_per_cycle::min_value            0                       # Number of insts issued each cycle
system.cpu.iq.issued_per_cycle::max_value            8                       # Number of insts issued each cycle
system.cpu.iq.issued_per_cycle::total          103738                       # Number of insts issued each cycle
system.cpu.iq.rate                           0.248208                       # Inst issue rate
system.cpu.iq.vec_alu_accesses                      0                       # Number of vector alu accesses
system.cpu.iq.vec_inst_queue_reads                  0                       # Number of vector instruction queue reads
system.cpu.iq.vec_inst_queue_wakeup_accesses            0                       # Number of vector instruction queue wakeup accesses
system.cpu.iq.vec_inst_queue_writes                 0                       # Number of vector instruction queue writes
system.cpu.itb.rdAccesses                           0                       # TLB accesses on read requests
system.cpu.itb.rdMisses                             0                       # TLB misses on read requests
system.cpu.itb.wrAccesses                        6379                       # TLB accesses on write requests
system.cpu.itb.wrMisses                           318                       # TLB misses on write requests
system.cpu.memDep0.conflictingLoads                62                       # Number of conflicting loads.
system.cpu.memDep0.conflictingStores               70                       # Number of conflicting stores.
system.cpu.memDep0.insertedLoads                 8970                       # Number of loads inserted to the mem dependence unit.
system.cpu.memDep0.insertedStores                5419                       # Number of stores inserted to the mem dependence unit.
system.cpu.misc_regfile_reads                   28826                       # number of misc regfile reads
system.cpu.numCycles                           279129                       # number of cpu cycles simulated
system.cpu.numWorkItemsCompleted                    0                       # number of work items this cpu completed
system.cpu.numWorkItemsStarted                      0                       # number of work items this cpu started
system.cpu.rename.BlockCycles                    8204                       # Number of cycles rename is blocking
system.cpu.rename.CommittedMaps                 56288                       # Number of HB maps that are committed
system.cpu.rename.IQFullEvents                    140                       # Number of times rename has blocked due to IQ full
system.cpu.rename.IdleCycles                    72424                       # Number of cycles rename is idle
system.cpu.rename.ROBFullEvents                    84                       # Number of times rename has blocked due to ROB full
system.cpu.rename.RenameLookups                198414                       # Number of register rename lookups that rename has made
system.cpu.rename.RenamedInsts                  80050                       # Number of instructions processed by rename
system.cpu.rename.RenamedOperands               88223                       # Number of destination operands rename has renamed
system.cpu.rename.RunCycles                     11986                       # Number of cycles rename is running
system.cpu.rename.SQFullEvents                   5049                       # Number of times rename has blocked due to SQ full
system.cpu.rename.SquashCycles                   1601                       # Number of cycles rename is squashing
system.cpu.rename.UnblockCycles                  5343                       # Number of cycles rename is unblocking
system.cpu.rename.UndoneMaps                    31915                       # Number of HB maps that are undone due to squashing
system.cpu.rename.fp_rename_lookups              5480                       # Number of floating rename lookups
system.cpu.rename.int_rename_lookups           114638                       # Number of integer rename lookups
system.cpu.rename.serializeStallCycles           4180                       # count of cycles rename stalled for serializing inst
system.cpu.rename.serializingInsts                 42                       # count of serializing insts renamed
system.cpu.rename.skidInsts                      1857                       # count of insts added to the skid buffer
system.cpu.rename.tempSerializingInsts             41                       # count of temporary serializing insts renamed
system.cpu.rob.rob_reads                       172876                       # The number of ROB reads
system.cpu.rob.rob_writes                      156790                       # The number of ROB writes
system.cpu.timesIdled                            1952                       # Number of times that the entire CPU went into an idle state and unscheduled itself
system.cpu.workload.numSyscalls                    27                       # Number of system calls
system.membus.snoop_filter.hit_multi_requests            3                       # Number of requests hitting in the snoop filter with multiple (>1) holders of the requested data.
system.membus.snoop_filter.hit_multi_snoops            0                       # Number of snoops hitting in the snoop filter with multiple (>1) holders of the requested data.
system.membus.snoop_filter.hit_single_requests         3711                       # Number of requests hitting in the snoop filter with a single holder of the requested data.
system.membus.snoop_filter.hit_single_snoops            0                       # Number of snoops hitting in the snoop filter with a single holder of the requested data.
system.membus.snoop_filter.tot_requests          7454                       # Total number of requests made to the snoop filter.
system.membus.snoop_filter.tot_snoops               0                       # Total number of snoops made to the snoop filter.
system.membus.pwrStateResidencyTicks::UNDEFINED    139564000                       # Cumulative time (in ticks) in various power states
system.membus.trans_dist::ReadResp               3385                       # Transaction distribution
system.membus.trans_dist::WritebackDirty          510                       # Transaction distribution
system.membus.trans_dist::WritebackClean         2420                       # Transaction distribution
system.membus.trans_dist::CleanEvict              781                       # Transaction distribution
system.membus.trans_dist::ReadExReq               358                       # Transaction distribution
system.membus.trans_dist::ReadExResp              358                       # Transaction distribution
system.membus.trans_dist::ReadCleanReq           2436                       # Transaction distribution
system.membus.trans_dist::ReadSharedReq           949                       # Transaction distribution
system.membus.pkt_count_system.cpu.icache.mem_side::system.mem_ctrls.port         7292                       # Packet count per connected master and slave (bytes)
system.membus.pkt_count_system.cpu.icache.mem_side::total         7292                       # Packet count per connected master and slave (bytes)
system.membus.pkt_count_system.cpu.dcache.mem_side::system.mem_ctrls.port         3905                       # Packet count per connected master and slave (bytes)
system.membus.pkt_count_system.cpu.dcache.mem_side::total         3905                       # Packet count per connected master and slave (bytes)
system.membus.pkt_count::total                  11197                       # Packet count per connected master and slave (bytes)
system.membus.pkt_size_system.cpu.icache.mem_side::system.mem_ctrls.port       310784                       # Cumulative packet size per connected master and slave (bytes)
system.membus.pkt_size_system.cpu.icache.mem_side::total       310784                       # Cumulative packet size per connected master and slave (bytes)
system.membus.pkt_size_system.cpu.dcache.mem_side::system.mem_ctrls.port       116288                       # Cumulative packet size per connected master and slave (bytes)
system.membus.pkt_size_system.cpu.dcache.mem_side::total       116288                       # Cumulative packet size per connected master and slave (bytes)
system.membus.pkt_size::total                  427072                       # Cumulative packet size per connected master and slave (bytes)
system.membus.snoops                                0                       # Total snoops (count)
system.membus.snoopTraffic                          0                       # Total snoop traffic (bytes)
system.membus.snoop_fanout::samples              3743                       # Request fanout histogram
system.membus.snoop_fanout::mean             0.000801                       # Request fanout histogram
system.membus.snoop_fanout::stdev            0.028303                       # Request fanout histogram
system.membus.snoop_fanout::underflows              0      0.00%      0.00% # Request fanout histogram
system.membus.snoop_fanout::0                    3740     99.92%     99.92% # Request fanout histogram
system.membus.snoop_fanout::1                       3      0.08%    100.00% # Request fanout histogram
system.membus.snoop_fanout::2                       0      0.00%    100.00% # Request fanout histogram
system.membus.snoop_fanout::3                       0      0.00%    100.00% # Request fanout histogram
system.membus.snoop_fanout::4                       0      0.00%    100.00% # Request fanout histogram
system.membus.snoop_fanout::overflows               0      0.00%    100.00% # Request fanout histogram
system.membus.snoop_fanout::min_value               0                       # Request fanout histogram
system.membus.snoop_fanout::max_value               1                       # Request fanout histogram
system.membus.snoop_fanout::total                3743                       # Request fanout histogram
system.membus.reqLayer2.occupancy            19418000                       # Layer occupancy (ticks)
system.membus.reqLayer2.utilization              13.9                       # Layer utilization (%)
system.membus.respLayer1.occupancy           12799750                       # Layer occupancy (ticks)
system.membus.respLayer1.utilization              9.2                       # Layer utilization (%)
system.membus.respLayer2.occupancy            6976247                       # Layer occupancy (ticks)
system.membus.respLayer2.utilization              5.0                       # Layer utilization (%)
system.voltage_domain.voltage                       1                       # Voltage in Volts
system.clk_domain.clock                          1000                       # Clock period in ticks
system.cpu_voltage_domain.voltage                   1                       # Voltage in Volts
system.mem_ctrls.pwrStateResidencyTicks::UNDEFINED    139564000                       # Cumulative time (in ticks) in various power states
system.mem_ctrls.bytes_read::.cpu.inst         155904                       # Number of bytes read from this memory
system.mem_ctrls.bytes_read::.cpu.data          83648                       # Number of bytes read from this memory
system.mem_ctrls.bytes_read::total             239552                       # Number of bytes read from this memory
system.mem_ctrls.bytes_inst_read::.cpu.inst       155904                       # Number of instructions bytes read from this memory
system.mem_ctrls.bytes_inst_read::total        155904                       # Number of instructions bytes read from this memory
system.mem_ctrls.bytes_written::.writebacks        32640                       # Number of bytes written to this memory
system.mem_ctrls.bytes_written::total           32640                       # Number of bytes written to this memory
system.mem_ctrls.num_reads::.cpu.inst            2436                       # Number of read requests responded to by this memory
system.mem_ctrls.num_reads::.cpu.data            1307                       # Number of read requests responded to by this memory
system.mem_ctrls.num_reads::total                3743                       # Number of read requests responded to by this memory
system.mem_ctrls.num_writes::.writebacks          510                       # Number of write requests responded to by this memory
system.mem_ctrls.num_writes::total                510                       # Number of write requests responded to by this memory
system.mem_ctrls.bw_read::.cpu.inst        1117078903                       # Total read bandwidth from this memory (bytes/s)
system.mem_ctrls.bw_read::.cpu.data         599352268                       # Total read bandwidth from this memory (bytes/s)
system.mem_ctrls.bw_read::total            1716431171                       # Total read bandwidth from this memory (bytes/s)
system.mem_ctrls.bw_inst_read::.cpu.inst   1117078903                       # Instruction read bandwidth from this memory (bytes/s)
system.mem_ctrls.bw_inst_read::total       1117078903                       # Instruction read bandwidth from this memory (bytes/s)
system.mem_ctrls.bw_write::.writebacks      233871199                       # Write bandwidth from this memory (bytes/s)
system.mem_ctrls.bw_write::total            233871199                       # Write bandwidth from this memory (bytes/s)
system.mem_ctrls.bw_total::.writebacks      233871199                       # Total bandwidth to/from this memory (bytes/s)
system.mem_ctrls.bw_total::.cpu.inst       1117078903                       # Total bandwidth to/from this memory (bytes/s)
system.mem_ctrls.bw_total::.cpu.data        599352268                       # Total bandwidth to/from this memory (bytes/s)
system.mem_ctrls.bw_total::total           1950302370                       # Total bandwidth to/from this memory (bytes/s)
system.mem_ctrls.avgPriority_.writebacks::samples      2612.00                       # Average QoS priority value for accepted requests
system.mem_ctrls.avgPriority_.cpu.inst::samples      1988.00                       # Average QoS priority value for accepted requests
system.mem_ctrls.avgPriority_.cpu.data::samples      1103.00                       # Average QoS priority value for accepted requests
system.mem_ctrls.priorityMinLatency      0.000000018750                       # per QoS priority minimum request to response latency (s)
system.mem_ctrls.priorityMaxLatency      0.000023095750                       # per QoS priority maximum request to response latency (s)
system.mem_ctrls.numReadWriteTurnArounds          160                       # Number of turnarounds from READ to WRITE
system.mem_ctrls.numWriteReadTurnArounds          161                       # Number of turnarounds from WRITE to READ
system.mem_ctrls.numStayReadState                8509                       # Number of times bus staying in READ state
system.mem_ctrls.numStayWriteState               2426                       # Number of times bus staying in WRITE state
system.mem_ctrls.readReqs                        3743                       # Number of read requests accepted
system.mem_ctrls.writeReqs                       2929                       # Number of write requests accepted
system.mem_ctrls.readBursts                      3743                       # Number of DRAM read bursts, including those serviced by the write queue
system.mem_ctrls.writeBursts                     2929                       # Number of DRAM write bursts, including those merged in the write queue
system.mem_ctrls.servicedByWrQ                    652                       # Number of DRAM read bursts serviced by the write queue
system.mem_ctrls.mergedWrBursts                   317                       # Number of DRAM write bursts merged with an existing one
system.mem_ctrls.neitherReadNorWriteReqs            0                       # Number of requests that are neither read nor write
system.mem_ctrls.perBankRdBursts::0               497                       # Per bank write bursts
system.mem_ctrls.perBankRdBursts::1                62                       # Per bank write bursts
system.mem_ctrls.perBankRdBursts::2               381                       # Per bank write bursts
system.mem_ctrls.perBankRdBursts::3               135                       # Per bank write bursts
system.mem_ctrls.perBankRdBursts::4               129                       # Per bank write bursts
system.mem_ctrls.perBankRdBursts::5                27                       # Per bank write bursts
system.mem_ctrls.perBankRdBursts::6                87                       # Per bank write bursts
system.mem_ctrls.perBankRdBursts::7                73                       # Per bank write bursts
system.mem_ctrls.perBankRdBursts::8                 0                       # Per bank write bursts
system.mem_ctrls.perBankRdBursts::9               314                       # Per bank write bursts
system.mem_ctrls.perBankRdBursts::10              211                       # Per bank write bursts
system.mem_ctrls.perBankRdBursts::11              103                       # Per bank write bursts
system.mem_ctrls.perBankRdBursts::12              384                       # Per bank write bursts
system.mem_ctrls.perBankRdBursts::13              189                       # Per bank write bursts
system.mem_ctrls.perBankRdBursts::14              195                       # Per bank write bursts
system.mem_ctrls.perBankRdBursts::15              304                       # Per bank write bursts
system.mem_ctrls.perBankWrBursts::0               496                       # Per bank write bursts
system.mem_ctrls.perBankWrBursts::1                56                       # Per bank write bursts
system.mem_ctrls.perBankWrBursts::2               297                       # Per bank write bursts
system.mem_ctrls.perBankWrBursts::3                87                       # Per bank write bursts
system.mem_ctrls.perBankWrBursts::4               109                       # Per bank write bursts
system.mem_ctrls.perBankWrBursts::5                26                       # Per bank write bursts
system.mem_ctrls.perBankWrBursts::6                91                       # Per bank write bursts
system.mem_ctrls.perBankWrBursts::7                74                       # Per bank write bursts
system.mem_ctrls.perBankWrBursts::8                 0                       # Per bank write bursts
system.mem_ctrls.perBankWrBursts::9               319                       # Per bank write bursts
system.mem_ctrls.perBankWrBursts::10              213                       # Per bank write bursts
system.mem_ctrls.perBankWrBursts::11               97                       # Per bank write bursts
system.mem_ctrls.perBankWrBursts::12              123                       # Per bank write bursts
system.mem_ctrls.perBankWrBursts::13               61                       # Per bank write bursts
system.mem_ctrls.perBankWrBursts::14              215                       # Per bank write bursts
system.mem_ctrls.perBankWrBursts::15              323                       # Per bank write bursts
system.mem_ctrls.avgRdQLen                       1.80                       # Average read queue length when enqueuing
system.mem_ctrls.avgWrQLen                      25.89                       # Average write queue length when enqueuing
system.mem_ctrls.totQLat                     55124000                       # Total ticks spent queuing
system.mem_ctrls.totBusLat                   15455000                       # Total ticks spent in databus transfers
system.mem_ctrls.totMemAccLat               113080250                       # Total ticks spent from burst creation until serviced by the DRAM
system.mem_ctrls.avgQLat                     17833.71                       # Average queueing delay per DRAM burst
system.mem_ctrls.avgBusLat                    5000.00                       # Average bus latency per DRAM burst
system.mem_ctrls.avgMemAccLat                36583.71                       # Average memory access latency per DRAM burst
system.mem_ctrls.numRdRetry                         0                       # Number of times read queue was full causing retry
system.mem_ctrls.numWrRetry                         0                       # Number of times write queue was full causing retry
system.mem_ctrls.readRowHits                     2424                       # Number of row buffer hits during reads
system.mem_ctrls.writeRowHits                    2355                       # Number of row buffer hits during writes
system.mem_ctrls.readRowHitRate                 78.42                       # Row buffer hit rate for reads
system.mem_ctrls.writeRowHitRate                90.16                       # Row buffer hit rate for writes
system.mem_ctrls.readPktSize::0                     0                       # Read request sizes (log2)
system.mem_ctrls.readPktSize::1                     0                       # Read request sizes (log2)
system.mem_ctrls.readPktSize::2                     0                       # Read request sizes (log2)
system.mem_ctrls.readPktSize::3                     0                       # Read request sizes (log2)
system.mem_ctrls.readPktSize::4                     0                       # Read request sizes (log2)
system.mem_ctrls.readPktSize::5                     0                       # Read request sizes (log2)
system.mem_ctrls.readPktSize::6                  3743                       # Read request sizes (log2)
system.mem_ctrls.writePktSize::0                    0                       # Write request sizes (log2)
system.mem_ctrls.writePktSize::1                    0                       # Write request sizes (log2)
system.mem_ctrls.writePktSize::2                    0                       # Write request sizes (log2)
system.mem_ctrls.writePktSize::3                    0                       # Write request sizes (log2)
system.mem_ctrls.writePktSize::4                    0                       # Write request sizes (log2)
system.mem_ctrls.writePktSize::5                    0                       # Write request sizes (log2)
system.mem_ctrls.writePktSize::6                 2929                       # Write request sizes (log2)
system.mem_ctrls.rdQLenPdf::0                    1690                       # What read queue length does an incoming req see
system.mem_ctrls.rdQLenPdf::1                     979                       # What read queue length does an incoming req see
system.mem_ctrls.rdQLenPdf::2                     304                       # What read queue length does an incoming req see
system.mem_ctrls.rdQLenPdf::3                      85                       # What read queue length does an incoming req see
system.mem_ctrls.rdQLenPdf::4                      30                       # What read queue length does an incoming req see
system.mem_ctrls.rdQLenPdf::5                       3                       # What read queue length does an incoming req see
system.mem_ctrls.rdQLenPdf::6                       0                       # What read queue length does an incoming req see
system.mem_ctrls.rdQLenPdf::7                       0                       # What read queue length does an incoming req see
system.mem_ctrls.rdQLenPdf::8                       0                       # What read queue length does an incoming req see
system.mem_ctrls.rdQLenPdf::9                       0                       # What read queue length does an incoming req see
system.mem_ctrls.rdQLenPdf::10                      0                       # What read queue length does an incoming req see
system.mem_ctrls.rdQLenPdf::11                      0                       # What read queue length does an incoming req see
system.mem_ctrls.rdQLenPdf::12                      0                       # What read queue length does an incoming req see
system.mem_ctrls.rdQLenPdf::13                      0                       # What read queue length does an incoming req see
system.mem_ctrls.rdQLenPdf::14                      0                       # What read queue length does an incoming req see
system.mem_ctrls.rdQLenPdf::15                      0                       # What read queue length does an incoming req see
system.mem_ctrls.rdQLenPdf::16                      0                       # What read queue length does an incoming req see
system.mem_ctrls.rdQLenPdf::17                      0                       # What read queue length does an incoming req see
system.mem_ctrls.rdQLenPdf::18                      0                       # What read queue length does an incoming req see
system.mem_ctrls.rdQLenPdf::19                      0                       # What read queue length does an incoming req see
system.mem_ctrls.rdQLenPdf::20                      0                       # What read queue length does an incoming req see
system.mem_ctrls.rdQLenPdf::21                      0                       # What read queue length does an incoming req see
system.mem_ctrls.rdQLenPdf::22                      0                       # What read queue length does an incoming req see
system.mem_ctrls.rdQLenPdf::23                      0                       # What read queue length does an incoming req see
system.mem_ctrls.rdQLenPdf::24                      0                       # What read queue length does an incoming req see
system.mem_ctrls.rdQLenPdf::25                      0                       # What read queue length does an incoming req see
system.mem_ctrls.rdQLenPdf::26                      0                       # What read queue length does an incoming req see
system.mem_ctrls.rdQLenPdf::27                      0                       # What read queue length does an incoming req see
system.mem_ctrls.rdQLenPdf::28                      0                       # What read queue length does an incoming req see
system.mem_ctrls.rdQLenPdf::29                      0                       # What read queue length does an incoming req see
system.mem_ctrls.rdQLenPdf::30                      0                       # What read queue length does an incoming req see
system.mem_ctrls.rdQLenPdf::31                      0                       # What read queue length does an incoming req see
system.mem_ctrls.wrQLenPdf::0                       1                       # What write queue length does an incoming req see
system.mem_ctrls.wrQLenPdf::1                       1                       # What write queue length does an incoming req see
system.mem_ctrls.wrQLenPdf::2                       1                       # What write queue length does an incoming req see
system.mem_ctrls.wrQLenPdf::3                       1                       # What write queue length does an incoming req see
system.mem_ctrls.wrQLenPdf::4                       1                       # What write queue length does an incoming req see
system.mem_ctrls.wrQLenPdf::5                       1                       # What write queue length does an incoming req see
system.mem_ctrls.wrQLenPdf::6                       1                       # What write queue length does an incoming req see
system.mem_ctrls.wrQLenPdf::7                       1                       # What write queue length does an incoming req see
system.mem_ctrls.wrQLenPdf::8                       1                       # What write queue length does an incoming req see
system.mem_ctrls.wrQLenPdf::9                       1                       # What write queue length does an incoming req see
system.mem_ctrls.wrQLenPdf::10                      1                       # What write queue length does an incoming req see
system.mem_ctrls.wrQLenPdf::11                      1                       # What write queue length does an incoming req see
system.mem_ctrls.wrQLenPdf::12                      1                       # What write queue length does an incoming req see
system.mem_ctrls.wrQLenPdf::13                      1                       # What write queue length does an incoming req see
system.mem_ctrls.wrQLenPdf::14                      1                       # What write queue length does an incoming req see
system.mem_ctrls.wrQLenPdf::15                      7                       # What write queue length does an incoming req see
system.mem_ctrls.wrQLenPdf::16                      8                       # What write queue length does an incoming req see
system.mem_ctrls.wrQLenPdf::17                     77                       # What write queue length does an incoming req see
system.mem_ctrls.wrQLenPdf::18                    129                       # What write queue length does an incoming req see
system.mem_ctrls.wrQLenPdf::19                    159                       # What write queue length does an incoming req see
system.mem_ctrls.wrQLenPdf::20                    173                       # What write queue length does an incoming req see
system.mem_ctrls.wrQLenPdf::21                    174                       # What write queue length does an incoming req see
system.mem_ctrls.wrQLenPdf::22                    190                       # What write queue length does an incoming req see
system.mem_ctrls.wrQLenPdf::23                    170                       # What write queue length does an incoming req see
system.mem_ctrls.wrQLenPdf::24                    174                       # What write queue length does an incoming req see
system.mem_ctrls.wrQLenPdf::25                    172                       # What write queue length does an incoming req see
system.mem_ctrls.wrQLenPdf::26                    192                       # What write queue length does an incoming req see
system.mem_ctrls.wrQLenPdf::27                    161                       # What write queue length does an incoming req see
system.mem_ctrls.wrQLenPdf::28                    161                       # What write queue length does an incoming req see
system.mem_ctrls.wrQLenPdf::29                    161                       # What write queue length does an incoming req see
system.mem_ctrls.wrQLenPdf::30                    161                       # What write queue length does an incoming req see
system.mem_ctrls.wrQLenPdf::31                    161                       # What write queue length does an incoming req see
system.mem_ctrls.wrQLenPdf::32                    161                       # What write queue length does an incoming req see
system.mem_ctrls.wrQLenPdf::33                      4                       # What write queue length does an incoming req see
system.mem_ctrls.wrQLenPdf::34                      1                       # What write queue length does an incoming req see
system.mem_ctrls.wrQLenPdf::35                      1                       # What write queue length does an incoming req see
system.mem_ctrls.wrQLenPdf::36                      0                       # What write queue length does an incoming req see
system.mem_ctrls.wrQLenPdf::37                      0                       # What write queue length does an incoming req see
system.mem_ctrls.wrQLenPdf::38                      0                       # What write queue length does an incoming req see
system.mem_ctrls.wrQLenPdf::39                      0                       # What write queue length does an incoming req see
system.mem_ctrls.wrQLenPdf::40                      0                       # What write queue length does an incoming req see
system.mem_ctrls.wrQLenPdf::41                      0                       # What write queue length does an incoming req see
system.mem_ctrls.wrQLenPdf::42                      0                       # What write queue length does an incoming req see
system.mem_ctrls.wrQLenPdf::43                      0                       # What write queue length does an incoming req see
system.mem_ctrls.wrQLenPdf::44                      0                       # What write queue length does an incoming req see
system.mem_ctrls.wrQLenPdf::45                      0                       # What write queue length does an incoming req see
system.mem_ctrls.wrQLenPdf::46                      0                       # What write queue length does an incoming req see
system.mem_ctrls.wrQLenPdf::47                      0                       # What write queue length does an incoming req see
system.mem_ctrls.wrQLenPdf::48                      0                       # What write queue length does an incoming req see
system.mem_ctrls.wrQLenPdf::49                      0                       # What write queue length does an incoming req see
system.mem_ctrls.wrQLenPdf::50                      0                       # What write queue length does an incoming req see
system.mem_ctrls.wrQLenPdf::51                      0                       # What write queue length does an incoming req see
system.mem_ctrls.wrQLenPdf::52                      0                       # What write queue length does an incoming req see
system.mem_ctrls.wrQLenPdf::53                      0                       # What write queue length does an incoming req see
system.mem_ctrls.wrQLenPdf::54                      0                       # What write queue length does an incoming req see
system.mem_ctrls.wrQLenPdf::55                      0                       # What write queue length does an incoming req see
system.mem_ctrls.wrQLenPdf::56                      0                       # What write queue length does an incoming req see
system.mem_ctrls.wrQLenPdf::57                      0                       # What write queue length does an incoming req see
system.mem_ctrls.wrQLenPdf::58                      0                       # What write queue length does an incoming req see
system.mem_ctrls.wrQLenPdf::59                      0                       # What write queue length does an incoming req see
system.mem_ctrls.wrQLenPdf::60                      0                       # What write queue length does an incoming req see
system.mem_ctrls.wrQLenPdf::61                      0                       # What write queue length does an incoming req see
system.mem_ctrls.wrQLenPdf::62                      0                       # What write queue length does an incoming req see
system.mem_ctrls.wrQLenPdf::63                      0                       # What write queue length does an incoming req see
system.mem_ctrls.bytesPerActivate::samples          888                       # Bytes accessed per row activation
system.mem_ctrls.bytesPerActivate::mean    404.036036                       # Bytes accessed per row activation
system.mem_ctrls.bytesPerActivate::gmean   252.446717                       # Bytes accessed per row activation
system.mem_ctrls.bytesPerActivate::stdev   358.751887                       # Bytes accessed per row activation
system.mem_ctrls.bytesPerActivate::0-127          218     24.55%     24.55% # Bytes accessed per row activation
system.mem_ctrls.bytesPerActivate::128-255          200     22.52%     47.07% # Bytes accessed per row activation
system.mem_ctrls.bytesPerActivate::256-383          108     12.16%     59.23% # Bytes accessed per row activation
system.mem_ctrls.bytesPerActivate::384-511           72      8.11%     67.34% # Bytes accessed per row activation
system.mem_ctrls.bytesPerActivate::512-639           48      5.41%     72.75% # Bytes accessed per row activation
system.mem_ctrls.bytesPerActivate::640-767           31      3.49%     76.24% # Bytes accessed per row activation
system.mem_ctrls.bytesPerActivate::768-895           29      3.27%     79.50% # Bytes accessed per row activation
system.mem_ctrls.bytesPerActivate::896-1023           23      2.59%     82.09% # Bytes accessed per row activation
system.mem_ctrls.bytesPerActivate::1024-1151          159     17.91%    100.00% # Bytes accessed per row activation
system.mem_ctrls.bytesPerActivate::total          888                       # Bytes accessed per row activation
system.mem_ctrls.rdPerTurnAround::samples          161                       # Reads before turning the bus around for writes
system.mem_ctrls.rdPerTurnAround::mean      19.198758                       # Reads before turning the bus around for writes
system.mem_ctrls.rdPerTurnAround::gmean     18.701864                       # Reads before turning the bus around for writes
system.mem_ctrls.rdPerTurnAround::stdev      5.259301                       # Reads before turning the bus around for writes
system.mem_ctrls.rdPerTurnAround::8-11              2      1.24%      1.24% # Reads before turning the bus around for writes
system.mem_ctrls.rdPerTurnAround::12-15            25     15.53%     16.77% # Reads before turning the bus around for writes
system.mem_ctrls.rdPerTurnAround::16-19            76     47.20%     63.98% # Reads before turning the bus around for writes
system.mem_ctrls.rdPerTurnAround::20-23            35     21.74%     85.71% # Reads before turning the bus around for writes
system.mem_ctrls.rdPerTurnAround::24-27            19     11.80%     97.52% # Reads before turning the bus around for writes
system.mem_ctrls.rdPerTurnAround::28-31             3      1.86%     99.38% # Reads before turning the bus around for writes
system.mem_ctrls.rdPerTurnAround::64-67             1      0.62%    100.00% # Reads before turning the bus around for writes
system.mem_ctrls.rdPerTurnAround::total           161                       # Reads before turning the bus around for writes
system.mem_ctrls.wrPerTurnAround::samples          160                       # Writes before turning the bus around for reads
system.mem_ctrls.wrPerTurnAround::mean      16.118750                       # Writes before turning the bus around for reads
system.mem_ctrls.wrPerTurnAround::gmean     16.111838                       # Writes before turning the bus around for reads
system.mem_ctrls.wrPerTurnAround::stdev      0.493631                       # Writes before turning the bus around for reads
system.mem_ctrls.wrPerTurnAround::16              150     93.75%     93.75% # Writes before turning the bus around for reads
system.mem_ctrls.wrPerTurnAround::17                3      1.88%     95.62% # Writes before turning the bus around for reads
system.mem_ctrls.wrPerTurnAround::18                5      3.12%     98.75% # Writes before turning the bus around for reads
system.mem_ctrls.wrPerTurnAround::19                2      1.25%    100.00% # Writes before turning the bus around for reads
system.mem_ctrls.wrPerTurnAround::total           160                       # Writes before turning the bus around for reads
system.mem_ctrls.bytesReadDRAM                 197824                       # Total number of bytes read from DRAM
system.mem_ctrls.bytesReadWrQ                   41728                       # Total number of bytes read from write queue
system.mem_ctrls.bytesWritten                  165568                       # Total number of bytes written to DRAM
system.mem_ctrls.bytesReadSys                  239552                       # Total read bytes from the system interface side
system.mem_ctrls.bytesWrittenSys               187456                       # Total written bytes from the system interface side
system.mem_ctrls.avgRdBW                      1417.44                       # Average DRAM read bandwidth in MiByte/s
system.mem_ctrls.avgWrBW                      1186.32                       # Average achieved write bandwidth in MiByte/s
system.mem_ctrls.avgRdBWSys                   1716.43                       # Average system read bandwidth in MiByte/s
system.mem_ctrls.avgWrBWSys                   1343.15                       # Average system write bandwidth in MiByte/s
system.mem_ctrls.peakBW                      12800.00                       # Theoretical peak bandwidth in MiByte/s
system.mem_ctrls.busUtil                        20.34                       # Data bus utilization in percentage
system.mem_ctrls.busUtilRead                    11.07                       # Data bus utilization in percentage for reads
system.mem_ctrls.busUtilWrite                    9.27                       # Data bus utilization in percentage for writes
system.mem_ctrls.totGap                     139553000                       # Total gap between requests
system.mem_ctrls.avgGap                      20916.22                       # Average gap between requests
system.mem_ctrls.masterReadBytes::.cpu.inst       127232                       # Per-master bytes read from memory
system.mem_ctrls.masterReadBytes::.cpu.data        70592                       # Per-master bytes read from memory
system.mem_ctrls.masterWriteBytes::.writebacks       165568                       # Per-master bytes write to memory
[...]
system.cpu.icache.ReadReq_mshr_miss_latency::.cpu.inst      6501499                       # number of ReadReq MSHR miss cycles
system.cpu.icache.ReadReq_mshr_miss_latency::total      6501499                       # number of ReadReq MSHR miss cycles
system.cpu.icache.ReadReq_mshr_miss_rate::.cpu.inst     0.354354                       # mshr miss rate for ReadReq accesses
system.cpu.icache.ReadReq_mshr_miss_rate::total     0.354354                       # mshr miss rate for ReadReq accesses
system.cpu.icache.ReadReq_avg_mshr_miss_latency::.cpu.inst 55097.449153                       # average ReadReq mshr miss latency
system.cpu.icache.ReadReq_avg_mshr_miss_latency::total 55097.449153                       # average ReadReq mshr miss latency
system.cpu.icache.tags.pwrStateResidencyTicks::UNDEFINED      5448000                       # Cumulative time (in ticks) in various power states
system.cpu.icache.tags.tagsinuse                   16                       # Cycle average of tags in use
system.cpu.icache.tags.total_refs                3276                       # Total number of references to valid blocks.
system.cpu.icache.tags.sampled_refs               134                       # Sample count of references to valid blocks.
system.cpu.icache.tags.avg_refs             24.447761                       # Average number of references to valid blocks.
system.cpu.icache.tags.warmup_cycle                 0                       # Cycle when the warmup percentage was hit.
system.cpu.icache.tags.occ_blocks::.cpu.inst           16                       # Average occupied blocks per requestor
system.cpu.icache.tags.occ_percent::.cpu.inst            1                       # Average percentage of cache occupancy
system.cpu.icache.tags.occ_percent::total            1                       # Average percentage of cache occupancy
system.cpu.icache.tags.occ_task_id_blocks::1024           16                       # Occupied blocks per task id
system.cpu.icache.tags.age_task_id_blocks_1024::0           16                       # Occupied blocks per task id
system.cpu.icache.tags.occ_task_id_percent::1024            1                       # Percentage of cache occupancy per task id
system.cpu.icache.tags.tag_accesses               451                       # Number of tag accesses
system.cpu.icache.tags.data_accesses              451                       # Number of data accesses
system.cpu.dtb.walker.pwrStateResidencyTicks::UNDEFINED      5448000                       # Cumulative time (in ticks) in various power states
system.cpu.interrupts.clk_domain.clock           8000                       # Clock period in ticks
system.cpu.itb_walker_cache.pwrStateResidencyTicks::UNDEFINED      5448000                       # Cumulative time (in ticks) in various power states
system.cpu.itb_walker_cache.blocked_cycles::no_mshrs            0                       # number of cycles access was blocked
system.cpu.itb_walker_cache.blocked_cycles::no_targets            0                       # number of cycles access was blocked
system.cpu.itb_walker_cache.blocked::no_mshrs            0                       # number of cycles access was blocked
system.cpu.itb_walker_cache.blocked::no_targets            0                       # number of cycles access was blocked
system.cpu.itb_walker_cache.avg_blocked_cycles::no_mshrs          nan                       # average number of cycles each access was blocked
system.cpu.itb_walker_cache.avg_blocked_cycles::no_targets          nan                       # average number of cycles each access was blocked
system.cpu.itb_walker_cache.replacements            0                       # number of replacements
system.cpu.itb_walker_cache.tags.pwrStateResidencyTicks::UNDEFINED      5448000                       # Cumulative time (in ticks) in various power states
system.cpu.itb_walker_cache.tags.tagsinuse            0                       # Cycle average of tags in use
system.cpu.itb_walker_cache.tags.total_refs            0                       # Total number of references to valid blocks.
system.cpu.itb_walker_cache.tags.sampled_refs            0                       # Sample count of references to valid blocks.
system.cpu.itb_walker_cache.tags.avg_refs          nan                       # Average number of references to valid blocks.
system.cpu.itb_walker_cache.tags.warmup_cycle            0                       # Cycle when the warmup percentage was hit.
system.cpu.itb_walker_cache.tags.tag_accesses            0                       # Number of tag accesses
system.cpu.itb_walker_cache.tags.data_accesses            0                       # Number of data accesses
system.cpu.itb.walker.pwrStateResidencyTicks::UNDEFINED      5448000                       # Cumulative time (in ticks) in various power states
system.cpu.dtb_walker_cache.pwrStateResidencyTicks::UNDEFINED      5448000                       # Cumulative time (in ticks) in various power states
system.cpu.dtb_walker_cache.blocked_cycles::no_mshrs            0                       # number of cycles access was blocked
system.cpu.dtb_walker_cache.blocked_cycles::no_targets            0                       # number of cycles access was blocked
system.cpu.dtb_walker_cache.blocked::no_mshrs            0                       # number of cycles access was blocked
system.cpu.dtb_walker_cache.blocked::no_targets            0                       # number of cycles access was blocked
system.cpu.dtb_walker_cache.avg_blocked_cycles::no_mshrs          nan                       # average number of cycles each access was blocked
system.cpu.dtb_walker_cache.avg_blocked_cycles::no_targets          nan                       # average number of cycles each access was blocked
system.cpu.dtb_walker_cache.replacements            0                       # number of replacements
system.cpu.dtb_walker_cache.tags.pwrStateResidencyTicks::UNDEFINED      5448000                       # Cumulative time (in ticks) in various power states
system.cpu.dtb_walker_cache.tags.tagsinuse            0                       # Cycle average of tags in use
system.cpu.dtb_walker_cache.tags.total_refs            0                       # Total number of references to valid blocks.
system.cpu.dtb_walker_cache.tags.sampled_refs            0                       # Sample count of references to valid blocks.
system.cpu.dtb_walker_cache.tags.avg_refs          nan                       # Average number of references to valid blocks.
system.cpu.dtb_walker_cache.tags.warmup_cycle            0                       # Cycle when the warmup percentage was hit.
system.cpu.dtb_walker_cache.tags.tag_accesses            0                       # Number of tag accesses
system.cpu.dtb_walker_cache.tags.data_accesses            0                       # Number of data accesses
system.cpu.dcache.pwrStateResidencyTicks::UNDEFINED      5448000                       # Cumulative time (in ticks) in various power states
system.cpu.dcache.demand_hits::.cpu.data          216                       # number of demand (read+write) hits
system.cpu.dcache.demand_hits::total              216                       # number of demand (read+write) hits
system.cpu.dcache.overall_hits::.cpu.data          216                       # number of overall hits
system.cpu.dcache.overall_hits::total             216                       # number of overall hits
system.cpu.dcache.demand_misses::.cpu.data           95                       # number of demand (read+write) misses
system.cpu.dcache.demand_misses::total             95                       # number of demand (read+write) misses
system.cpu.dcache.overall_misses::.cpu.data           95                       # number of overall misses
system.cpu.dcache.overall_misses::total            95                       # number of overall misses
system.cpu.dcache.demand_miss_latency::.cpu.data      5261500                       # number of demand (read+write) miss cycles
system.cpu.dcache.demand_miss_latency::total      5261500                       # number of demand (read+write) miss cycles
system.cpu.dcache.overall_miss_latency::.cpu.data      5261500                       # number of overall miss cycles
system.cpu.dcache.overall_miss_latency::total      5261500                       # number of overall miss cycles
system.cpu.dcache.demand_accesses::.cpu.data          311                       # number of demand (read+write) accesses
system.cpu.dcache.demand_accesses::total          311                       # number of demand (read+write) accesses
system.cpu.dcache.overall_accesses::.cpu.data          311                       # number of overall (read+write) accesses
system.cpu.dcache.overall_accesses::total          311                       # number of overall (read+write) accesses
system.cpu.dcache.demand_miss_rate::.cpu.data     0.305466                       # miss rate for demand accesses
system.cpu.dcache.demand_miss_rate::total     0.305466                       # miss rate for demand accesses
system.cpu.dcache.overall_miss_rate::.cpu.data     0.305466                       # miss rate for overall accesses
system.cpu.dcache.overall_miss_rate::total     0.305466                       # miss rate for overall accesses
system.cpu.dcache.demand_avg_miss_latency::.cpu.data 55384.210526                       # average overall miss latency
system.cpu.dcache.demand_avg_miss_latency::total 55384.210526                       # average overall miss latency
system.cpu.dcache.overall_avg_miss_latency::.cpu.data 55384.210526                       # average overall miss latency
system.cpu.dcache.overall_avg_miss_latency::total 55384.210526                       # average overall miss latency
system.cpu.dcache.blocked_cycles::no_mshrs            0                       # number of cycles access was blocked
system.cpu.dcache.blocked_cycles::no_targets            0                       # number of cycles access was blocked
system.cpu.dcache.blocked::no_mshrs                 0                       # number of cycles access was blocked
system.cpu.dcache.blocked::no_targets               0                       # number of cycles access was blocked
system.cpu.dcache.avg_blocked_cycles::no_mshrs          nan                       # average number of cycles each access was blocked
system.cpu.dcache.avg_blocked_cycles::no_targets          nan                       # average number of cycles each access was blocked
system.cpu.dcache.writebacks::.writebacks           25                       # number of writebacks
system.cpu.dcache.writebacks::total                25                       # number of writebacks
system.cpu.dcache.demand_mshr_hits::.cpu.data           29                       # number of demand (read+write) MSHR hits
system.cpu.dcache.demand_mshr_hits::total           29                       # number of demand (read+write) MSHR hits
system.cpu.dcache.overall_mshr_hits::.cpu.data           29                       # number of overall MSHR hits
system.cpu.dcache.overall_mshr_hits::total           29                       # number of overall MSHR hits
system.cpu.dcache.demand_mshr_misses::.cpu.data           66                       # number of demand (read+write) MSHR misses
system.cpu.dcache.demand_mshr_misses::total           66                       # number of demand (read+write) MSHR misses
system.cpu.dcache.overall_mshr_misses::.cpu.data           66                       # number of overall MSHR misses
system.cpu.dcache.overall_mshr_misses::total           66                       # number of overall MSHR misses
system.cpu.dcache.demand_mshr_miss_latency::.cpu.data      3837500                       # number of demand (read+write) MSHR miss cycles
system.cpu.dcache.demand_mshr_miss_latency::total      3837500                       # number of demand (read+write) MSHR miss cycles
system.cpu.dcache.overall_mshr_miss_latency::.cpu.data      3837500                       # number of overall MSHR miss cycles
system.cpu.dcache.overall_mshr_miss_latency::total      3837500                       # number of overall MSHR miss cycles
system.cpu.dcache.demand_mshr_miss_rate::.cpu.data     0.212219                       # mshr miss rate for demand accesses
system.cpu.dcache.demand_mshr_miss_rate::total     0.212219                       # mshr miss rate for demand accesses
system.cpu.dcache.overall_mshr_miss_rate::.cpu.data     0.212219                       # mshr miss rate for overall accesses
system.cpu.dcache.overall_mshr_miss_rate::total     0.212219                       # mshr miss rate for overall accesses
system.cpu.dcache.demand_avg_mshr_miss_latency::.cpu.data 58143.939394                       # average overall mshr miss latency
system.cpu.dcache.demand_avg_mshr_miss_latency::total 58143.939394                       # average overall mshr miss latency
system.cpu.dcache.overall_avg_mshr_miss_latency::.cpu.data 58143.939394                       # average overall mshr miss latency
system.cpu.dcache.overall_avg_mshr_miss_latency::total 58143.939394                       # average overall mshr miss latency
system.cpu.dcache.replacements                     67                       # number of replacements
system.cpu.dcache.ReadReq_hits::.cpu.data          125                       # number of ReadReq hits
system.cpu.dcache.ReadReq_hits::total             125                       # number of ReadReq hits
system.cpu.dcache.ReadReq_misses::.cpu.data           82                       # number of ReadReq misses
system.cpu.dcache.ReadReq_misses::total            82                       # number of ReadReq misses
system.cpu.dcache.ReadReq_miss_latency::.cpu.data      4650000                       # number of ReadReq miss cycles
system.cpu.dcache.ReadReq_miss_latency::total      4650000                       # number of ReadReq miss cycles
system.cpu.dcache.ReadReq_accesses::.cpu.data          207                       # number of ReadReq accesses(hits+misses)
system.cpu.dcache.ReadReq_accesses::total          207                       # number of ReadReq accesses(hits+misses)
system.cpu.dcache.ReadReq_miss_rate::.cpu.data     0.396135                       # miss rate for ReadReq accesses
system.cpu.dcache.ReadReq_miss_rate::total     0.396135                       # miss rate for ReadReq accesses
system.cpu.dcache.ReadReq_avg_miss_latency::.cpu.data 56707.317073                       # average ReadReq miss latency
system.cpu.dcache.ReadReq_avg_miss_latency::total 56707.317073                       # average ReadReq miss latency
system.cpu.dcache.ReadReq_mshr_hits::.cpu.data           29                       # number of ReadReq MSHR hits
system.cpu.dcache.ReadReq_mshr_hits::total           29                       # number of ReadReq MSHR hits
system.cpu.dcache.ReadReq_mshr_misses::.cpu.data           53                       # number of ReadReq MSHR misses
system.cpu.dcache.ReadReq_mshr_misses::total           53                       # number of ReadReq MSHR misses
system.cpu.dcache.ReadReq_mshr_miss_latency::.cpu.data      3239000                       # number of ReadReq MSHR miss cycles
system.cpu.dcache.ReadReq_mshr_miss_latency::total      3239000                       # number of ReadReq MSHR miss cycles
system.cpu.dcache.ReadReq_mshr_miss_rate::.cpu.data     0.256039                       # mshr miss rate for ReadReq accesses
system.cpu.dcache.ReadReq_mshr_miss_rate::total     0.256039                       # mshr miss rate for ReadReq accesses
system.cpu.dcache.ReadReq_avg_mshr_miss_latency::.cpu.data 61113.207547                       # average ReadReq mshr miss latency
system.cpu.dcache.ReadReq_avg_mshr_miss_latency::total 61113.207547                       # average ReadReq mshr miss latency
system.cpu.dcache.WriteReq_hits::.cpu.data           91                       # number of WriteReq hits
system.cpu.dcache.WriteReq_hits::total             91                       # number of WriteReq hits
system.cpu.dcache.WriteReq_misses::.cpu.data           13                       # number of WriteReq misses
system.cpu.dcache.WriteReq_misses::total           13                       # number of WriteReq misses
system.cpu.dcache.WriteReq_miss_latency::.cpu.data       611500                       # number of WriteReq miss cycles
system.cpu.dcache.WriteReq_miss_latency::total       611500                       # number of WriteReq miss cycles
system.cpu.dcache.WriteReq_accesses::.cpu.data          104                       # number of WriteReq accesses(hits+misses)
system.cpu.dcache.WriteReq_accesses::total          104                       # number of WriteReq accesses(hits+misses)
system.cpu.dcache.WriteReq_miss_rate::.cpu.data     0.125000                       # miss rate for WriteReq accesses
system.cpu.dcache.WriteReq_miss_rate::total     0.125000                       # miss rate for WriteReq accesses
system.cpu.dcache.WriteReq_avg_miss_latency::.cpu.data 47038.461538                       # average WriteReq miss latency
system.cpu.dcache.WriteReq_avg_miss_latency::total 47038.461538                       # average WriteReq miss latency
system.cpu.dcache.WriteReq_mshr_misses::.cpu.data           13                       # number of WriteReq MSHR misses
system.cpu.dcache.WriteReq_mshr_misses::total           13                       # number of WriteReq MSHR misses
system.cpu.dcache.WriteReq_mshr_miss_latency::.cpu.data       598500                       # number of WriteReq MSHR miss cycles
system.cpu.dcache.WriteReq_mshr_miss_latency::total       598500                       # number of WriteReq MSHR miss cycles
system.cpu.dcache.WriteReq_mshr_miss_rate::.cpu.data     0.125000                       # mshr miss rate for WriteReq accesses
system.cpu.dcache.WriteReq_mshr_miss_rate::total     0.125000                       # mshr miss rate for WriteReq accesses
system.cpu.dcache.WriteReq_avg_mshr_miss_latency::.cpu.data 46038.461538                       # average WriteReq mshr miss latency
system.cpu.dcache.WriteReq_avg_mshr_miss_latency::total 46038.461538                       # average WriteReq mshr miss latency
system.cpu.dcache.tags.pwrStateResidencyTicks::UNDEFINED      5448000                       # Cumulative time (in ticks) in various power states
system.cpu.dcache.tags.tagsinuse                   16                       # Cycle average of tags in use
system.cpu.dcache.tags.total_refs                1193                       # Total number of references to valid blocks.
system.cpu.dcache.tags.sampled_refs                83                       # Sample count of references to valid blocks.
system.cpu.dcache.tags.avg_refs             14.373494                       # Average number of references to valid blocks.
system.cpu.dcache.tags.warmup_cycle                 0                       # Cycle when the warmup percentage was hit.
system.cpu.dcache.tags.occ_blocks::.cpu.data           16                       # Average occupied blocks per requestor
system.cpu.dcache.tags.occ_percent::.cpu.data            1                       # Average percentage of cache occupancy
system.cpu.dcache.tags.occ_percent::total            1                       # Average percentage of cache occupancy
system.cpu.dcache.tags.occ_task_id_blocks::1024           16                       # Occupied blocks per task id
system.cpu.dcache.tags.age_task_id_blocks_1024::0           15                       # Occupied blocks per task id
system.cpu.dcache.tags.age_task_id_blocks_1024::1            1                       # Occupied blocks per task id
system.cpu.dcache.tags.occ_task_id_percent::1024            1                       # Percentage of cache occupancy per task id
system.cpu.dcache.tags.tag_accesses               378                       # Number of tag accesses
system.cpu.dcache.tags.data_accesses              378                       # Number of data accesses

---------- End Simulation Statistics   ----------
