
---------- Begin Simulation Statistics ----------
final_tick                                   34823500                       # Number of ticks from beginning of simulation (restored from checkpoints and never reset)
host_inst_rate                                  33200                       # Simulator instruction rate (inst/s)
host_mem_usage                                4363028                       # Number of bytes of host memory used
host_op_rate                                    64517                       # Simulator op (including micro ops) rate (op/s)
host_seconds                                     0.75                       # Real time elapsed on the host
host_tick_rate                               46353420                       # Simulator tick rate (ticks/s)
sim_freq                                 1000000000000                       # Frequency of simulated ticks
sim_insts                                       24939                       # Number of instructions simulated
sim_ops                                         48468                       # Number of ops (including micro ops) simulated
sim_seconds                                  0.000035                       # Number of seconds simulated
sim_ticks                                    34823500                       # Number of ticks simulated
system.cpu.branchPred.BTBCorrect                    0                       # Number of correct BTB predictions (this stat may not work properly.
system.cpu.branchPred.BTBHitPct              0.000000                       # BTB Hit Percentage
system.cpu.branchPred.BTBHits                       0                       # Number of BTB hits
system.cpu.branchPred.BTBLookups                 9153                       # Number of BTB lookups
system.cpu.branchPred.RASInCorrect                  2                       # Number of incorrect RAS predictions.
system.cpu.branchPred.condIncorrect              1172                       # Number of conditional branches incorrect
system.cpu.branchPred.condPredicted              8719                       # Number of conditional branches predicted
system.cpu.branchPred.indirectHits               1905                       # Number of indirect target hits.
system.cpu.branchPred.indirectLookups            9153                       # Number of indirect predictor lookups.
system.cpu.branchPred.indirectMisses             7248                       # Number of indirect misses.
system.cpu.branchPred.lookups                   10839                       # Number of BP lookups
system.cpu.branchPred.usedRAS                     794                       # Number of times the RAS was used to get a target.
system.cpu.branchPredindirectMispredicted          986                       # Number of mispredicted indirect branches.
system.cpu.cc_regfile_reads                     31608                       # number of cc regfile reads
system.cpu.cc_regfile_writes                    17481                       # number of cc regfile writes
system.cpu.commit.amos                              0                       # Number of atomic instructions committed
system.cpu.commit.branchMispredicts              1270                       # The number of times a branch was mispredicted
system.cpu.commit.branches                       5591                       # Number of branches committed
system.cpu.commit.bw_lim_events                  2577                       # number cycles where commit BW limit reached
system.cpu.commit.commitNonSpecStalls              27                       # The number of times commit has been forced to stall to communicate backwards
system.cpu.commit.commitSquashedInsts           26597                       # The number of squashed insts skipped by commit
system.cpu.commit.committedInsts                24939                       # Number of instructions committed
system.cpu.commit.committedOps                  48468                       # Number of ops (including micro ops) committed
system.cpu.commit.committed_per_cycle::samples        40434                       # Number of insts commited each cycle
system.cpu.commit.committed_per_cycle::mean     1.198694                       # Number of insts commited each cycle
system.cpu.commit.committed_per_cycle::stdev     2.285746                       # Number of insts commited each cycle
system.cpu.commit.committed_per_cycle::underflows            0      0.00%      0.00% # Number of insts commited each cycle
system.cpu.commit.committed_per_cycle::0        27850     68.88%     68.88% # Number of insts commited each cycle
system.cpu.commit.committed_per_cycle::1         2781      6.88%     75.76% # Number of insts commited each cycle
system.cpu.commit.committed_per_cycle::2         2011      4.97%     80.73% # Number of insts commited each cycle
system.cpu.commit.committed_per_cycle::3         2664      6.59%     87.32% # Number of insts commited each cycle
system.cpu.commit.committed_per_cycle::4          896      2.22%     89.53% # Number of insts commited each cycle
system.cpu.commit.committed_per_cycle::5          821      2.03%     91.56% # Number of insts commited each cycle
system.cpu.commit.committed_per_cycle::6          470      1.16%     92.73% # Number of insts commited each cycle
system.cpu.commit.committed_per_cycle::7          364      0.90%     93.63% # Number of insts commited each cycle
system.cpu.commit.committed_per_cycle::8         2577      6.37%    100.00% # Number of insts commited each cycle
system.cpu.commit.committed_per_cycle::overflows            0      0.00%    100.00% # Number of insts commited each cycle
system.cpu.commit.committed_per_cycle::min_value            0                       # Number of insts commited each cycle
system.cpu.commit.committed_per_cycle::max_value            8                       # Number of insts commited each cycle
system.cpu.commit.committed_per_cycle::total        40434                       # Number of insts commited each cycle
system.cpu.commit.fp_insts                       2607                       # Number of committed floating point instructions.
system.cpu.commit.function_calls                  420                       # Number of function calls committed.
system.cpu.commit.int_insts                     46412                       # Number of committed integer instructions.
system.cpu.commit.loads                          5792                       # Number of loads committed
system.cpu.commit.membars                           0                       # Number of memory barriers committed
system.cpu.commit.op_class_0::No_OpClass          145      0.30%      0.30% # Class of committed instruction
system.cpu.commit.op_class_0::IntAlu            37230     76.81%     77.11% # Class of committed instruction
system.cpu.commit.op_class_0::IntMult               4      0.01%     77.12% # Class of committed instruction
system.cpu.commit.op_class_0::IntDiv              126      0.26%     77.38% # Class of committed instruction
system.cpu.commit.op_class_0::FloatAdd             26      0.05%     77.43% # Class of committed instruction
system.cpu.commit.op_class_0::FloatCmp              0      0.00%     77.43% # Class of committed instruction
system.cpu.commit.op_class_0::FloatCvt              0      0.00%     77.43% # Class of committed instruction
system.cpu.commit.op_class_0::FloatMult             0      0.00%     77.43% # Class of committed instruction
system.cpu.commit.op_class_0::FloatMultAcc            0      0.00%     77.43% # Class of committed instruction
system.cpu.commit.op_class_0::FloatDiv              0      0.00%     77.43% # Class of committed instruction
system.cpu.commit.op_class_0::FloatMisc             0      0.00%     77.43% # Class of committed instruction
system.cpu.commit.op_class_0::FloatSqrt             0      0.00%     77.43% # Class of committed instruction
system.cpu.commit.op_class_0::SimdAdd             374      0.77%     78.21% # Class of committed instruction
system.cpu.commit.op_class_0::SimdAddAcc            0      0.00%     78.21% # Class of committed instruction
system.cpu.commit.op_class_0::SimdAlu             180      0.37%     78.58% # Class of committed instruction
system.cpu.commit.op_class_0::SimdCmp               0      0.00%     78.58% # Class of committed instruction
system.cpu.commit.op_class_0::SimdCvt             268      0.55%     79.13% # Class of committed instruction
system.cpu.commit.op_class_0::SimdMisc            406      0.84%     79.97% # Class of committed instruction
system.cpu.commit.op_class_0::SimdMult              0      0.00%     79.97% # Class of committed instruction
system.cpu.commit.op_class_0::SimdMultAcc            0      0.00%     79.97% # Class of committed instruction
system.cpu.commit.op_class_0::SimdShift           186      0.38%     80.35% # Class of committed instruction
system.cpu.commit.op_class_0::SimdShiftAcc            0      0.00%     80.35% # Class of committed instruction
system.cpu.commit.op_class_0::SimdDiv               0      0.00%     80.35% # Class of committed instruction
system.cpu.commit.op_class_0::SimdSqrt              0      0.00%     80.35% # Class of committed instruction
system.cpu.commit.op_class_0::SimdFloatAdd            0      0.00%     80.35% # Class of committed instruction
system.cpu.commit.op_class_0::SimdFloatAlu            0      0.00%     80.35% # Class of committed instruction
system.cpu.commit.op_class_0::SimdFloatCmp            0      0.00%     80.35% # Class of committed instruction
system.cpu.commit.op_class_0::SimdFloatCvt            0      0.00%     80.35% # Class of committed instruction
system.cpu.commit.op_class_0::SimdFloatDiv            0      0.00%     80.35% # Class of committed instruction
system.cpu.commit.op_class_0::SimdFloatMisc            0      0.00%     80.35% # Class of committed instruction
system.cpu.commit.op_class_0::SimdFloatMult            0      0.00%     80.35% # Class of committed instruction
system.cpu.commit.op_class_0::SimdFloatMultAcc            0      0.00%     80.35% # Class of committed instruction
system.cpu.commit.op_class_0::SimdFloatSqrt            0      0.00%     80.35% # Class of committed instruction
system.cpu.commit.op_class_0::SimdReduceAdd            0      0.00%     80.35% # Class of committed instruction
system.cpu.commit.op_class_0::SimdReduceAlu            0      0.00%     80.35% # Class of committed instruction
system.cpu.commit.op_class_0::SimdReduceCmp            0      0.00%     80.35% # Class of committed instruction
system.cpu.commit.op_class_0::SimdFloatReduceAdd            0      0.00%     80.35% # Class of committed instruction
system.cpu.commit.op_class_0::SimdFloatReduceCmp            0      0.00%     80.35% # Class of committed instruction
system.cpu.commit.op_class_0::SimdAes               0      0.00%     80.35% # Class of committed instruction
system.cpu.commit.op_class_0::SimdAesMix            0      0.00%     80.35% # Class of committed instruction
system.cpu.commit.op_class_0::SimdSha1Hash            0      0.00%     80.35% # Class of committed instruction
system.cpu.commit.op_class_0::SimdSha1Hash2            0      0.00%     80.35% # Class of committed instruction
system.cpu.commit.op_class_0::SimdSha256Hash            0      0.00%     80.35% # Class of committed instruction
system.cpu.commit.op_class_0::SimdSha256Hash2            0      0.00%     80.35% # Class of committed instruction
system.cpu.commit.op_class_0::SimdShaSigma2            0      0.00%     80.35% # Class of committed instruction
system.cpu.commit.op_class_0::SimdShaSigma3            0      0.00%     80.35% # Class of committed instruction
system.cpu.commit.op_class_0::SimdPredAlu            0      0.00%     80.35% # Class of committed instruction
system.cpu.commit.op_class_0::MemRead            5644     11.64%     92.00% # Class of committed instruction
system.cpu.commit.op_class_0::MemWrite           3304      6.82%     98.81% # Class of committed instruction
system.cpu.commit.op_class_0::FloatMemRead          148      0.31%     99.12% # Class of committed instruction
system.cpu.commit.op_class_0::FloatMemWrite          427      0.88%    100.00% # Class of committed instruction
system.cpu.commit.op_class_0::IprAccess             0      0.00%    100.00% # Class of committed instruction
system.cpu.commit.op_class_0::InstPrefetch            0      0.00%    100.00% # Class of committed instruction
system.cpu.commit.op_class_0::total             48468                       # Class of committed instruction
system.cpu.commit.refs                           9523                       # Number of memory references committed
system.cpu.commit.swp_count                         0                       # Number of s/w prefetches committed
system.cpu.commit.vec_insts                         0                       # Number of committed Vector instructions.
system.cpu.committedInsts                       24939                       # Number of Instructions Simulated
system.cpu.committedOps                         48468                       # Number of Ops (including micro ops) Simulated
system.cpu.cpi                               2.792734                       # CPI: Cycles Per Instruction
system.cpu.cpi_total                         2.792734                       # CPI: Total CPI of All Threads
system.cpu.decode.BlockedCycles                 12384                       # Number of cycles decode is blocked
system.cpu.decode.DecodedInsts                  87708                       # Number of instructions handled by decode
system.cpu.decode.IdleCycles                    18034                       # Number of cycles decode is idle
system.cpu.decode.RunCycles                     12269                       # Number of cycles decode is running
system.cpu.decode.SquashCycles                   1286                       # Number of cycles decode is squashing
system.cpu.decode.UnblockCycles                   878                       # Number of cycles decode is unblocking
system.cpu.dtb.rdAccesses                        7671                       # TLB accesses on read requests
system.cpu.dtb.rdMisses                            65                       # TLB misses on read requests
system.cpu.dtb.wrAccesses                        4584                       # TLB accesses on write requests
system.cpu.dtb.wrMisses                            13                       # TLB misses on write requests
system.cpu.fetch.Branches                       10839                       # Number of branches that fetch encountered
system.cpu.fetch.CacheLines                      6442                       # Number of cache lines fetched
system.cpu.fetch.Cycles                         22194                       # Number of cycles fetch has run and was not squashing or blocked
system.cpu.fetch.IcacheSquashes                   573                       # Number of outstanding Icache misses that were squashed
system.cpu.fetch.IcacheWaitRetryStallCycles           22                       # Number of stall cycles due to full MSHR
system.cpu.fetch.Insts                          48055                       # Number of instructions fetch has processed
system.cpu.fetch.MiscStallCycles                  151                       # Number of cycles fetch has spent waiting on interrupts, or bad addresses, or out of MSHRs
system.cpu.fetch.PendingQuiesceStallCycles            6                       # Number of stall cycles due to pending quiesce instructions
system.cpu.fetch.PendingTrapStallCycles           645                       # Number of stall cycles due to pending traps
system.cpu.fetch.SquashCycles                    2572                       # Number of cycles fetch has spent squashing
system.cpu.fetch.branchRate                  0.155625                       # Number of branch fetches per cycle
system.cpu.fetch.icacheStallCycles              20547                       # Number of cycles fetch is stalled on an Icache miss
system.cpu.fetch.predictedBranches               2699                       # Number of branches that fetch has predicted taken
system.cpu.fetch.rate                        0.689970                       # Number of inst fetches per cycle
system.cpu.fetch.rateDist::samples              44851                       # Number of instructions fetched each cycle (Total)
system.cpu.fetch.rateDist::mean              2.087200                       # Number of instructions fetched each cycle (Total)
system.cpu.fetch.rateDist::stdev             3.301613                       # Number of instructions fetched each cycle (Total)
system.cpu.fetch.rateDist::underflows               0      0.00%      0.00% # Number of instructions fetched each cycle (Total)
system.cpu.fetch.rateDist::0                    30283     67.52%     67.52% # Number of instructions fetched each cycle (Total)
system.cpu.fetch.rateDist::1                     1123      2.50%     70.02% # Number of instructions fetched each cycle (Total)
system.cpu.fetch.rateDist::2                      398      0.89%     70.91% # Number of instructions fetched each cycle (Total)
system.cpu.fetch.rateDist::3                     1069      2.38%     73.29% # Number of instructions fetched each cycle (Total)
system.cpu.fetch.rateDist::4                      741      1.65%     74.95% # Number of instructions fetched each cycle (Total)
system.cpu.fetch.rateDist::5                      882      1.97%     76.91% # Number of instructions fetched each cycle (Total)
system.cpu.fetch.rateDist::6                      613      1.37%     78.28% # Number of instructions fetched each cycle (Total)
system.cpu.fetch.rateDist::7                      501      1.12%     79.40% # Number of instructions fetched each cycle (Total)
system.cpu.fetch.rateDist::8                     9241     20.60%    100.00% # Number of instructions fetched each cycle (Total)
system.cpu.fetch.rateDist::overflows                0      0.00%    100.00% # Number of instructions fetched each cycle (Total)
system.cpu.fetch.rateDist::min_value                0                       # Number of instructions fetched each cycle (Total)
system.cpu.fetch.rateDist::max_value                8                       # Number of instructions fetched each cycle (Total)
system.cpu.fetch.rateDist::total                44851                       # Number of instructions fetched each cycle (Total)
system.cpu.fp_regfile_reads                      5080                       # number of floating regfile reads
system.cpu.fp_regfile_writes                     2125                       # number of floating regfile writes
system.cpu.idleCycles                           24797                       # Total number of cycles that the CPU has spent unscheduled due to idling
system.cpu.iew.branchMispredicts                 1646                       # Number of branch mispredicts detected at execute
system.cpu.iew.exec_branches                     6860                       # Number of branches executed
system.cpu.iew.exec_nop                             0                       # number of nop insts executed
system.cpu.iew.exec_rate                     0.923889                       # Inst execution rate
system.cpu.iew.exec_refs                        12257                       # number of memory reference insts executed
system.cpu.iew.exec_stores                       4583                       # Number of stores executed
system.cpu.iew.exec_swp                             0                       # number of swp insts executed
system.cpu.iew.iewBlockCycles                    3419                       # Number of cycles IEW is blocking
system.cpu.iew.iewDispLoadInsts                  9144                       # Number of dispatched load instructions
system.cpu.iew.iewDispNonSpecInsts                 44                       # Number of dispatched non-speculative instructions
system.cpu.iew.iewDispSquashedInsts                83                       # Number of squashed instructions skipped by dispatch
system.cpu.iew.iewDispStoreInsts                 5745                       # Number of dispatched store instructions
system.cpu.iew.iewDispatchedInsts               75167                       # Number of instructions dispatched to IQ
system.cpu.iew.iewExecLoadInsts                  7674                       # Number of load instructions executed
system.cpu.iew.iewExecSquashedInsts              2579                       # Number of squashed instructions skipped in execute
system.cpu.iew.iewExecutedInsts                 64347                       # Number of executed instructions
system.cpu.iew.iewIQFullEvents                     12                       # Number of times the IQ has become full, causing a stall
system.cpu.iew.iewIdleCycles                        0                       # Number of cycles IEW is idle
system.cpu.iew.iewLSQFullEvents                   937                       # Number of times the LSQ has become full, causing a stall
system.cpu.iew.iewSquashCycles                   1286                       # Number of cycles IEW is squashing
system.cpu.iew.iewUnblockCycles                   951                       # Number of cycles IEW is unblocking
system.cpu.iew.lsq.thread0.blockedLoads             0                       # Number of blocked loads due to partial load-store forwarding
system.cpu.iew.lsq.thread0.cacheBlocked             5                       # Number of times an access to memory failed due to the cache being blocked
system.cpu.iew.lsq.thread0.forwLoads             1148                       # Number of loads that had data forwarded from stores
system.cpu.iew.lsq.thread0.ignoredResponses           11                       # Number of memory responses ignored because the instruction is squashed
system.cpu.iew.lsq.thread0.invAddrLoads             0                       # Number of loads ignored due to an invalid address
system.cpu.iew.lsq.thread0.invAddrSwpfs             0                       # Number of software prefetches ignored due to an invalid address
system.cpu.iew.lsq.thread0.memOrderViolation           21                       # Number of memory ordering violations
system.cpu.iew.lsq.thread0.rescheduledLoads            5                       # Number of loads that were rescheduled
system.cpu.iew.lsq.thread0.squashedLoads         3350                       # Number of loads squashed
system.cpu.iew.lsq.thread0.squashedStores         2012                       # Number of stores squashed
system.cpu.iew.memOrderViolationEvents             21                       # Number of memory order violations
system.cpu.iew.predictedNotTakenIncorrect         1541                       # Number of branches that were predicted not taken incorrectly
system.cpu.iew.predictedTakenIncorrect            105                       # Number of branches that were predicted taken incorrectly
system.cpu.iew.wb_consumers                     68346                       # num instructions consuming a value
system.cpu.iew.wb_count                         63199                       # cumulative count of insts written-back
system.cpu.iew.wb_fanout                     0.645758                       # average fanout of values written-back
system.cpu.iew.wb_producers                     44135                       # num instructions producing a value
system.cpu.iew.wb_rate                       0.907406                       # insts written-back per cycle
system.cpu.iew.wb_sent                          63708                       # cumulative count of insts sent to commit
system.cpu.int_regfile_reads                    87579                       # number of integer regfile reads
system.cpu.int_regfile_writes                   49648                       # number of integer regfile writes
system.cpu.ipc                               0.358072                       # IPC: Instructions Per Cycle
system.cpu.ipc_total                         0.358072                       # IPC: Total IPC of All Threads
system.cpu.iq.FU_type_0::No_OpClass               668      1.00%      1.00% # Type of FU issued
system.cpu.iq.FU_type_0::IntAlu                 51523     76.99%     77.98% # Type of FU issued
system.cpu.iq.FU_type_0::IntMult                    4      0.01%     77.99% # Type of FU issued
system.cpu.iq.FU_type_0::IntDiv                   135      0.20%     78.19% # Type of FU issued
system.cpu.iq.FU_type_0::FloatAdd                  27      0.04%     78.23% # Type of FU issued
system.cpu.iq.FU_type_0::FloatCmp                   0      0.00%     78.23% # Type of FU issued
system.cpu.iq.FU_type_0::FloatCvt                   0      0.00%     78.23% # Type of FU issued
system.cpu.iq.FU_type_0::FloatMult                  0      0.00%     78.23% # Type of FU issued
system.cpu.iq.FU_type_0::FloatMultAcc               0      0.00%     78.23% # Type of FU issued
system.cpu.iq.FU_type_0::FloatDiv                   0      0.00%     78.23% # Type of FU issued
system.cpu.iq.FU_type_0::FloatMisc                  0      0.00%     78.23% # Type of FU issued
system.cpu.iq.FU_type_0::FloatSqrt                  0      0.00%     78.23% # Type of FU issued
system.cpu.iq.FU_type_0::SimdAdd                  378      0.56%     78.80% # Type of FU issued
system.cpu.iq.FU_type_0::SimdAddAcc                 0      0.00%     78.80% # Type of FU issued
system.cpu.iq.FU_type_0::SimdAlu                  197      0.29%     79.09% # Type of FU issued
system.cpu.iq.FU_type_0::SimdCmp                    0      0.00%     79.09% # Type of FU issued
system.cpu.iq.FU_type_0::SimdCvt                  280      0.42%     79.51% # Type of FU issued
system.cpu.iq.FU_type_0::SimdMisc                 410      0.61%     80.12% # Type of FU issued
system.cpu.iq.FU_type_0::SimdMult                   0      0.00%     80.12% # Type of FU issued
system.cpu.iq.FU_type_0::SimdMultAcc                0      0.00%     80.12% # Type of FU issued
system.cpu.iq.FU_type_0::SimdShift                188      0.28%     80.40% # Type of FU issued
system.cpu.iq.FU_type_0::SimdShiftAcc               0      0.00%     80.40% # Type of FU issued
system.cpu.iq.FU_type_0::SimdDiv                    0      0.00%     80.40% # Type of FU issued
system.cpu.iq.FU_type_0::SimdSqrt                   0      0.00%     80.40% # Type of FU issued
system.cpu.iq.FU_type_0::SimdFloatAdd               0      0.00%     80.40% # Type of FU issued
system.cpu.iq.FU_type_0::SimdFloatAlu               0      0.00%     80.40% # Type of FU issued
system.cpu.iq.FU_type_0::SimdFloatCmp               0      0.00%     80.40% # Type of FU issued
system.cpu.iq.FU_type_0::SimdFloatCvt               0      0.00%     80.40% # Type of FU issued
system.cpu.iq.FU_type_0::SimdFloatDiv               0      0.00%     80.40% # Type of FU issued
system.cpu.iq.FU_type_0::SimdFloatMisc              0      0.00%     80.40% # Type of FU issued
system.cpu.iq.FU_type_0::SimdFloatMult              0      0.00%     80.40% # Type of FU issued
system.cpu.iq.FU_type_0::SimdFloatMultAcc            0      0.00%     80.40% # Type of FU issued
system.cpu.iq.FU_type_0::SimdFloatSqrt              0      0.00%     80.40% # Type of FU issued
system.cpu.iq.FU_type_0::SimdReduceAdd              0      0.00%     80.40% # Type of FU issued
system.cpu.iq.FU_type_0::SimdReduceAlu              0      0.00%     80.40% # Type of FU issued
system.cpu.iq.FU_type_0::SimdReduceCmp              0      0.00%     80.40% # Type of FU issued
system.cpu.iq.FU_type_0::SimdFloatReduceAdd            0      0.00%     80.40% # Type of FU issued
system.cpu.iq.FU_type_0::SimdFloatReduceCmp            0      0.00%     80.40% # Type of FU issued
system.cpu.iq.FU_type_0::SimdAes                    0      0.00%     80.40% # Type of FU issued
system.cpu.iq.FU_type_0::SimdAesMix                 0      0.00%     80.40% # Type of FU issued
system.cpu.iq.FU_type_0::SimdSha1Hash               0      0.00%     80.40% # Type of FU issued
system.cpu.iq.FU_type_0::SimdSha1Hash2              0      0.00%     80.40% # Type of FU issued
system.cpu.iq.FU_type_0::SimdSha256Hash             0      0.00%     80.40% # Type of FU issued
system.cpu.iq.FU_type_0::SimdSha256Hash2            0      0.00%     80.40% # Type of FU issued
system.cpu.iq.FU_type_0::SimdShaSigma2              0      0.00%     80.40% # Type of FU issued
system.cpu.iq.FU_type_0::SimdShaSigma3              0      0.00%     80.40% # Type of FU issued
system.cpu.iq.FU_type_0::SimdPredAlu                0      0.00%     80.40% # Type of FU issued
system.cpu.iq.FU_type_0::MemRead                 7977     11.92%     92.32% # Type of FU issued
system.cpu.iq.FU_type_0::MemWrite                4376      6.54%     98.86% # Type of FU issued
system.cpu.iq.FU_type_0::FloatMemRead             262      0.39%     99.25% # Type of FU issued
system.cpu.iq.FU_type_0::FloatMemWrite            501      0.75%    100.00% # Type of FU issued
system.cpu.iq.FU_type_0::IprAccess                  0      0.00%    100.00% # Type of FU issued
system.cpu.iq.FU_type_0::InstPrefetch               0      0.00%    100.00% # Type of FU issued
system.cpu.iq.FU_type_0::total                  66926                       # Type of FU issued
system.cpu.iq.fp_alu_accesses                    2911                       # Number of floating point alu accesses
system.cpu.iq.fp_inst_queue_reads                5842                       # Number of floating instruction queue reads
system.cpu.iq.fp_inst_queue_wakeup_accesses         2717                       # Number of floating instruction queue wakeup accesses
system.cpu.iq.fp_inst_queue_writes               3719                       # Number of floating instruction queue writes
system.cpu.iq.fu_busy_cnt                         797                       # FU busy when requested
system.cpu.iq.fu_busy_rate                   0.011909                       # FU busy rate (busy events/executed inst)
system.cpu.iq.fu_full::No_OpClass                   0      0.00%      0.00% # attempts to use FU when none available
system.cpu.iq.fu_full::IntAlu                     663     83.19%     83.19% # attempts to use FU when none available
system.cpu.iq.fu_full::IntMult                      0      0.00%     83.19% # attempts to use FU when none available
system.cpu.iq.fu_full::IntDiv                       0      0.00%     83.19% # attempts to use FU when none available
system.cpu.iq.fu_full::FloatAdd                     0      0.00%     83.19% # attempts to use FU when none available
system.cpu.iq.fu_full::FloatCmp                     0      0.00%     83.19% # attempts to use FU when none available
system.cpu.iq.fu_full::FloatCvt                     0      0.00%     83.19% # attempts to use FU when none available
system.cpu.iq.fu_full::FloatMult                    0      0.00%     83.19% # attempts to use FU when none available
system.cpu.iq.fu_full::FloatMultAcc                 0      0.00%     83.19% # attempts to use FU when none available
system.cpu.iq.fu_full::FloatDiv                     0      0.00%     83.19% # attempts to use FU when none available
system.cpu.iq.fu_full::FloatMisc                    0      0.00%     83.19% # attempts to use FU when none available
system.cpu.iq.fu_full::FloatSqrt                    0      0.00%     83.19% # attempts to use FU when none available
system.cpu.iq.fu_full::SimdAdd                      0      0.00%     83.19% # attempts to use FU when none available
system.cpu.iq.fu_full::SimdAddAcc                   0      0.00%     83.19% # attempts to use FU when none available
system.cpu.iq.fu_full::SimdAlu                     20      2.51%     85.70% # attempts to use FU when none available
system.cpu.iq.fu_full::SimdCmp                      0      0.00%     85.70% # attempts to use FU when none available
system.cpu.iq.fu_full::SimdCvt                     12      1.51%     87.20% # attempts to use FU when none available
system.cpu.iq.fu_full::SimdMisc                     1      0.13%     87.33% # attempts to use FU when none available
system.cpu.iq.fu_full::SimdMult                     0      0.00%     87.33% # attempts to use FU when none available
system.cpu.iq.fu_full::SimdMultAcc                  0      0.00%     87.33% # attempts to use FU when none available
system.cpu.iq.fu_full::SimdShift                    0      0.00%     87.33% # attempts to use FU when none available
system.cpu.iq.fu_full::SimdShiftAcc                 0      0.00%     87.33% # attempts to use FU when none available
system.cpu.iq.fu_full::SimdDiv                      0      0.00%     87.33% # attempts to use FU when none available
system.cpu.iq.fu_full::SimdSqrt                     0      0.00%     87.33% # attempts to use FU when none available
system.cpu.iq.fu_full::SimdFloatAdd                 0      0.00%     87.33% # attempts to use FU when none available
system.cpu.iq.fu_full::SimdFloatAlu                 0      0.00%     87.33% # attempts to use FU when none available
system.cpu.iq.fu_full::SimdFloatCmp                 0      0.00%     87.33% # attempts to use FU when none available
system.cpu.iq.fu_full::SimdFloatCvt                 0      0.00%     87.33% # attempts to use FU when none available
system.cpu.iq.fu_full::SimdFloatDiv                 0      0.00%     87.33% # attempts to use FU when none available
system.cpu.iq.fu_full::SimdFloatMisc                0      0.00%     87.33% # attempts to use FU when none available
system.cpu.iq.fu_full::SimdFloatMult                0      0.00%     87.33% # attempts to use FU when none available
system.cpu.iq.fu_full::SimdFloatMultAcc             0      0.00%     87.33% # attempts to use FU when none available
system.cpu.iq.fu_full::SimdFloatSqrt                0      0.00%     87.33% # attempts to use FU when none available
system.cpu.iq.fu_full::SimdReduceAdd                0      0.00%     87.33% # attempts to use FU when none available
system.cpu.iq.fu_full::SimdReduceAlu                0      0.00%     87.33% # attempts to use FU when none available
system.cpu.iq.fu_full::SimdReduceCmp                0      0.00%     87.33% # attempts to use FU when none available
system.cpu.iq.fu_full::SimdFloatReduceAdd            0      0.00%     87.33% # attempts to use FU when none available
system.cpu.iq.fu_full::SimdFloatReduceCmp            0      0.00%     87.33% # attempts to use FU when none available
system.cpu.iq.fu_full::SimdAes                      0      0.00%     87.33% # attempts to use FU when none available
system.cpu.iq.fu_full::SimdAesMix                   0      0.00%     87.33% # attempts to use FU when none available
system.cpu.iq.fu_full::SimdSha1Hash                 0      0.00%     87.33% # attempts to use FU when none available
system.cpu.iq.fu_full::SimdSha1Hash2                0      0.00%     87.33% # attempts to use FU when none available
system.cpu.iq.fu_full::SimdSha256Hash               0      0.00%     87.33% # attempts to use FU when none available
system.cpu.iq.fu_full::SimdSha256Hash2              0      0.00%     87.33% # attempts to use FU when none available
system.cpu.iq.fu_full::SimdShaSigma2                0      0.00%     87.33% # attempts to use FU when none available
system.cpu.iq.fu_full::SimdShaSigma3                0      0.00%     87.33% # attempts to use FU when none available
system.cpu.iq.fu_full::SimdPredAlu                  0      0.00%     87.33% # attempts to use FU when none available
system.cpu.iq.fu_full::MemRead                     36      4.52%     91.84% # attempts to use FU when none available
system.cpu.iq.fu_full::MemWrite                    30      3.76%     95.61% # attempts to use FU when none available
system.cpu.iq.fu_full::FloatMemRead                 8      1.00%     96.61% # attempts to use FU when none available
system.cpu.iq.fu_full::FloatMemWrite               27      3.39%    100.00% # attempts to use FU when none available
system.cpu.iq.fu_full::IprAccess                    0      0.00%    100.00% # attempts to use FU when none available
system.cpu.iq.fu_full::InstPrefetch                 0      0.00%    100.00% # attempts to use FU when none available
system.cpu.iq.int_alu_accesses                  64144                       # Number of integer alu accesses
system.cpu.iq.int_inst_queue_reads             174043                       # Number of integer instruction queue reads
system.cpu.iq.int_inst_queue_wakeup_accesses        60482                       # Number of integer instruction queue wakeup accesses
system.cpu.iq.int_inst_queue_writes             98147                       # Number of integer instruction queue writes
system.cpu.iq.iqInstsAdded                      75101                       # Number of instructions added to the IQ (excludes non-spec)
system.cpu.iq.iqInstsIssued                     66926                       # Number of instructions issued
system.cpu.iq.iqNonSpecInstsAdded                  66                       # Number of non-speculative instructions added to the IQ
system.cpu.iq.iqSquashedInstsExamined           26678                       # Number of squashed instructions iterated over during squash; mainly for profiling
system.cpu.iq.iqSquashedInstsIssued               385                       # Number of squashed instructions issued
system.cpu.iq.iqSquashedNonSpecRemoved             39                       # Number of squashed non-spec instructions that were removed
system.cpu.iq.iqSquashedOperandsExamined        36500                       # Number of squashed operands that are examined and possibly removed from graph
system.cpu.iq.issued_per_cycle::samples         44851                       # Number of insts issued each cycle
system.cpu.iq.issued_per_cycle::mean         1.492185                       # Number of insts issued each cycle
system.cpu.iq.issued_per_cycle::stdev        2.348680                       # Number of insts issued each cycle
system.cpu.iq.issued_per_cycle::underflows            0      0.00%      0.00% # Number of insts issued each cycle
system.cpu.iq.issued_per_cycle::0               28169     62.81%     62.81% # Number of insts issued each cycle
system.cpu.iq.issued_per_cycle::1                2570      5.73%     68.54% # Number of insts issued each cycle
system.cpu.iq.issued_per_cycle::2                2839      6.33%     74.87% # Number of insts issued each cycle
system.cpu.iq.issued_per_cycle::3                2101      4.68%     79.55% # Number of insts issued each cycle
system.cpu.iq.issued_per_cycle::4                2058      4.59%     84.14% # Number of insts issued each cycle
system.cpu.iq.issued_per_cycle::5                2189      4.88%     89.02% # Number of insts issued each cycle
system.cpu.iq.issued_per_cycle::6                2307      5.14%     94.16% # Number of insts issued each cycle
system.cpu.iq.issued_per_cycle::7                1588      3.54%     97.70% # Number of insts issued each cycle
system.cpu.iq.issued_per_cycle::8                1030      2.30%    100.00% # Number of insts issued each cycle
system.cpu.iq.issued_per_cycle::overflows            0      0.00%    100.00% # Number of insts issued each cycle
system.cpu.iq.issued_per_cycle::min_value            0                       # Number of insts issued each cycle
system.cpu.iq.issued_per_cycle::max_value            8                       # Number of insts issued each cycle
system.cpu.iq.issued_per_cycle::total           44851                       # Number of insts issued each cycle
system.cpu.iq.rate                           0.960918                       # Inst issue rate
system.cpu.iq.vec_alu_accesses                      0                       # Number of vector alu accesses
system.cpu.iq.vec_inst_queue_reads                  0                       # Number of vector instruction queue reads
system.cpu.iq.vec_inst_queue_wakeup_accesses            0                       # Number of vector instruction queue wakeup accesses
system.cpu.iq.vec_inst_queue_writes                 0                       # Number of vector instruction queue writes
system.cpu.itb.rdAccesses                           0                       # TLB accesses on read requests
system.cpu.itb.rdMisses                             0                       # TLB misses on read requests
system.cpu.itb.wrAccesses                        6558                       # TLB accesses on write requests
system.cpu.itb.wrMisses                           162                       # TLB misses on write requests
system.cpu.memDep0.conflictingLoads               176                       # Number of conflicting loads.
system.cpu.memDep0.conflictingStores               78                       # Number of conflicting stores.
system.cpu.memDep0.insertedLoads                 9144                       # Number of loads inserted to the mem dependence unit.
system.cpu.memDep0.insertedStores                5745                       # Number of stores inserted to the mem dependence unit.
system.cpu.misc_regfile_reads                   27745                       # number of misc regfile reads
system.cpu.numCycles                            69648                       # number of cpu cycles simulated
system.cpu.numWorkItemsCompleted                    0                       # number of work items this cpu completed
system.cpu.numWorkItemsStarted                      0                       # number of work items this cpu started
system.cpu.rename.BlockCycles                    4976                       # Number of cycles rename is blocking
system.cpu.rename.CommittedMaps                 53536                       # Number of HB maps that are committed
system.cpu.rename.IQFullEvents                    277                       # Number of times rename has blocked due to IQ full
system.cpu.rename.IdleCycles                    18708                       # Number of cycles rename is idle
system.cpu.rename.ROBFullEvents                    50                       # Number of times rename has blocked due to ROB full
system.cpu.rename.RenameLookups                207202                       # Number of register rename lookups that rename has made
system.cpu.rename.RenamedInsts                  83507                       # Number of instructions processed by rename
system.cpu.rename.RenamedOperands               91112                       # Number of destination operands rename has renamed
system.cpu.rename.RunCycles                     12405                       # Number of cycles rename is running
system.cpu.rename.SQFullEvents                   5738                       # Number of times rename has blocked due to SQ full
system.cpu.rename.SquashCycles                   1286                       # Number of cycles rename is squashing
system.cpu.rename.UnblockCycles                  6134                       # Number of cycles rename is unblocking
system.cpu.rename.UndoneMaps                    37560                       # Number of HB maps that are undone due to squashing
system.cpu.rename.fp_rename_lookups              5720                       # Number of floating rename lookups
system.cpu.rename.int_rename_lookups           120324                       # Number of integer rename lookups
system.cpu.rename.serializeStallCycles           1342                       # count of cycles rename stalled for serializing inst
system.cpu.rename.serializingInsts                 37                       # count of serializing insts renamed
system.cpu.rename.skidInsts                      2260                       # count of insts added to the skid buffer
system.cpu.rename.tempSerializingInsts             35                       # count of temporary serializing insts renamed
system.cpu.rob.rob_reads                       112922                       # The number of ROB reads
system.cpu.rob.rob_writes                      154742                       # The number of ROB writes
system.cpu.timesIdled                             284                       # Number of times that the entire CPU went into an idle state and unscheduled itself
system.cpu.workload.numSyscalls                    25                       # Number of system calls
system.membus.snoop_filter.hit_multi_requests            0                       # Number of requests hitting in the snoop filter with multiple (>1) holders of the requested data.
system.membus.snoop_filter.hit_multi_snoops            0                       # Number of snoops hitting in the snoop filter with multiple (>1) holders of the requested data.
system.membus.snoop_filter.hit_single_requests           89                       # Number of requests hitting in the snoop filter with a single holder of the requested data.
system.membus.snoop_filter.hit_single_snoops            0                       # Number of snoops hitting in the snoop filter with a single holder of the requested data.
system.membus.snoop_filter.tot_requests           852                       # Total number of requests made to the snoop filter.
system.membus.snoop_filter.tot_snoops               0                       # Total number of snoops made to the snoop filter.
system.membus.pwrStateResidencyTicks::UNDEFINED     34823500                       # Cumulative time (in ticks) in various power states
system.membus.trans_dist::ReadResp                646                       # Transaction distribution
system.membus.trans_dist::WritebackDirty            1                       # Transaction distribution
system.membus.trans_dist::WritebackClean           82                       # Transaction distribution
system.membus.trans_dist::CleanEvict                1                       # Transaction distribution
system.membus.trans_dist::ReadExReq               122                       # Transaction distribution
system.membus.trans_dist::ReadExResp              122                       # Transaction distribution
system.membus.trans_dist::ReadCleanReq            528                       # Transaction distribution
system.membus.trans_dist::ReadSharedReq           118                       # Transaction distribution
system.membus.pkt_count_system.cpu.icache.mem_side::system.mem_ctrls.port         1136                       # Packet count per connected master and slave (bytes)
system.membus.pkt_count_system.cpu.icache.mem_side::total         1136                       # Packet count per connected master and slave (bytes)
system.membus.pkt_count_system.cpu.dcache.mem_side::system.mem_ctrls.port          482                       # Packet count per connected master and slave (bytes)
system.membus.pkt_count_system.cpu.dcache.mem_side::total          482                       # Packet count per connected master and slave (bytes)
system.membus.pkt_count::total                   1618                       # Packet count per connected master and slave (bytes)
system.membus.pkt_size_system.cpu.icache.mem_side::system.mem_ctrls.port        38912                       # Cumulative packet size per connected master and slave (bytes)
system.membus.pkt_size_system.cpu.icache.mem_side::total        38912                       # Cumulative packet size per connected master and slave (bytes)
system.membus.pkt_size_system.cpu.dcache.mem_side::system.mem_ctrls.port        15424                       # Cumulative packet size per connected master and slave (bytes)
system.membus.pkt_size_system.cpu.dcache.mem_side::total        15424                       # Cumulative packet size per connected master and slave (bytes)
system.membus.pkt_size::total                   54336                       # Cumulative packet size per connected master and slave (bytes)
system.membus.snoops                                2                       # Total snoops (count)
system.membus.snoopTraffic                        128                       # Total snoop traffic (bytes)
system.membus.snoop_fanout::samples               768                       # Request fanout histogram
system.membus.snoop_fanout::mean             0.006510                       # Request fanout histogram
system.membus.snoop_fanout::stdev            0.080476                       # Request fanout histogram
system.membus.snoop_fanout::underflows              0      0.00%      0.00% # Request fanout histogram
system.membus.snoop_fanout::0                     763     99.35%     99.35% # Request fanout histogram
system.membus.snoop_fanout::1                       5      0.65%    100.00% # Request fanout histogram
system.membus.snoop_fanout::2                       0      0.00%    100.00% # Request fanout histogram
system.membus.snoop_fanout::3                       0      0.00%    100.00% # Request fanout histogram
system.membus.snoop_fanout::4                       0      0.00%    100.00% # Request fanout histogram
system.membus.snoop_fanout::overflows               0      0.00%    100.00% # Request fanout histogram
system.membus.snoop_fanout::min_value               0                       # Request fanout histogram
system.membus.snoop_fanout::max_value               1                       # Request fanout histogram
system.membus.snoop_fanout::total                 768                       # Request fanout histogram
system.membus.reqLayer2.occupancy             1337500                       # Layer occupancy (ticks)
system.membus.reqLayer2.utilization               3.8                       # Layer utilization (%)
system.membus.respLayer1.occupancy            2803500                       # Layer occupancy (ticks)
system.membus.respLayer1.utilization              8.1                       # Layer utilization (%)
system.membus.respLayer2.occupancy            1287500                       # Layer occupancy (ticks)
system.membus.respLayer2.utilization              3.7                       # Layer utilization (%)
system.voltage_domain.voltage                       1                       # Voltage in Volts
system.clk_domain.clock                          1000                       # Clock period in ticks
system.cpu_voltage_domain.voltage                   1                       # Voltage in Volts
system.mem_ctrls.pwrStateResidencyTicks::UNDEFINED     34823500                       # Cumulative time (in ticks) in various power states
system.mem_ctrls.bytes_read::.cpu.inst          33664                       # Number of bytes read from this memory
system.mem_ctrls.bytes_read::.cpu.data          15360                       # Number of bytes read from this memory
system.mem_ctrls.bytes_read::total              49024                       # Number of bytes read from this memory
system.mem_ctrls.bytes_inst_read::.cpu.inst        33664                       # Number of instructions bytes read from this memory
system.mem_ctrls.bytes_inst_read::total         33664                       # Number of instructions bytes read from this memory
system.mem_ctrls.bytes_written::.writebacks           64                       # Number of bytes written to this memory
system.mem_ctrls.bytes_written::total              64                       # Number of bytes written to this memory
system.mem_ctrls.num_reads::.cpu.inst             526                       # Number of read requests responded to by this memory
system.mem_ctrls.num_reads::.cpu.data             240                       # Number of read requests responded to by this memory
system.mem_ctrls.num_reads::total                 766                       # Number of read requests responded to by this memory
system.mem_ctrls.num_writes::.writebacks            1                       # Number of write requests responded to by this memory
system.mem_ctrls.num_writes::total                  1                       # Number of write requests responded to by this memory
system.mem_ctrls.bw_read::.cpu.inst         966703519                       # Total read bandwidth from this memory (bytes/s)
system.mem_ctrls.bw_read::.cpu.data         441081454                       # Total read bandwidth from this memory (bytes/s)
system.mem_ctrls.bw_read::total            1407784973                       # Total read bandwidth from this memory (bytes/s)
system.mem_ctrls.bw_inst_read::.cpu.inst    966703519                       # Instruction read bandwidth from this memory (bytes/s)
system.mem_ctrls.bw_inst_read::total        966703519                       # Instruction read bandwidth from this memory (bytes/s)
system.mem_ctrls.bw_write::.writebacks        1837839                       # Write bandwidth from this memory (bytes/s)
system.mem_ctrls.bw_write::total              1837839                       # Write bandwidth from this memory (bytes/s)
system.mem_ctrls.bw_total::.writebacks        1837839                       # Total bandwidth to/from this memory (bytes/s)
system.mem_ctrls.bw_total::.cpu.inst        966703519                       # Total bandwidth to/from this memory (bytes/s)
system.mem_ctrls.bw_total::.cpu.data        441081454                       # Total bandwidth to/from this memory (bytes/s)
system.mem_ctrls.bw_total::total           1409622812                       # Total bandwidth to/from this memory (bytes/s)
system.mem_ctrls.avgPriority_.writebacks::samples        83.00                       # Average QoS priority value for accepted requests
system.mem_ctrls.avgPriority_.cpu.inst::samples       524.00                       # Average QoS priority value for accepted requests
system.mem_ctrls.avgPriority_.cpu.data::samples       240.00                       # Average QoS priority value for accepted requests
system.mem_ctrls.priorityMinLatency      0.000000018750                       # per QoS priority minimum request to response latency (s)
system.mem_ctrls.priorityMaxLatency      0.000023294750                       # per QoS priority maximum request to response latency (s)
system.mem_ctrls.numReadWriteTurnArounds            4                       # Number of turnarounds from READ to WRITE
system.mem_ctrls.numWriteReadTurnArounds            4                       # Number of turnarounds from WRITE to READ
system.mem_ctrls.numStayReadState                1582                       # Number of times bus staying in READ state
system.mem_ctrls.numStayWriteState                 62                       # Number of times bus staying in WRITE state
system.mem_ctrls.readReqs                         766                       # Number of read requests accepted
system.mem_ctrls.writeReqs                         83                       # Number of write requests accepted
system.mem_ctrls.readBursts                       766                       # Number of DRAM read bursts, including those serviced by the write queue
system.mem_ctrls.writeBursts                       83                       # Number of DRAM write bursts, including those merged in the write queue
system.mem_ctrls.servicedByWrQ                      2                       # Number of DRAM read bursts serviced by the write queue
system.mem_ctrls.mergedWrBursts                     0                       # Number of DRAM write bursts merged with an existing one
system.mem_ctrls.neitherReadNorWriteReqs            0                       # Number of requests that are neither read nor write
system.mem_ctrls.perBankRdBursts::0               130                       # Per bank write bursts
system.mem_ctrls.perBankRdBursts::1                18                       # Per bank write bursts
system.mem_ctrls.perBankRdBursts::2                72                       # Per bank write bursts
system.mem_ctrls.perBankRdBursts::3                16                       # Per bank write bursts
system.mem_ctrls.perBankRdBursts::4                39                       # Per bank write bursts
system.mem_ctrls.perBankRdBursts::5                17                       # Per bank write bursts
system.mem_ctrls.perBankRdBursts::6                65                       # Per bank write bursts
system.mem_ctrls.perBankRdBursts::7                27                       # Per bank write bursts
system.mem_ctrls.perBankRdBursts::8                 0                       # Per bank write bursts
system.mem_ctrls.perBankRdBursts::9                39                       # Per bank write bursts
system.mem_ctrls.perBankRdBursts::10               27                       # Per bank write bursts
system.mem_ctrls.perBankRdBursts::11               19                       # Per bank write bursts
system.mem_ctrls.perBankRdBursts::12               95                       # Per bank write bursts
system.mem_ctrls.perBankRdBursts::13               60                       # Per bank write bursts
system.mem_ctrls.perBankRdBursts::14               88                       # Per bank write bursts
system.mem_ctrls.perBankRdBursts::15               52                       # Per bank write bursts
system.mem_ctrls.perBankWrBursts::0                11                       # Per bank write bursts
system.mem_ctrls.perBankWrBursts::1                 8                       # Per bank write bursts
system.mem_ctrls.perBankWrBursts::2                 7                       # Per bank write bursts
system.mem_ctrls.perBankWrBursts::3                 0                       # Per bank write bursts
system.mem_ctrls.perBankWrBursts::4                 0                       # Per bank write bursts
system.mem_ctrls.perBankWrBursts::5                 0                       # Per bank write bursts
system.mem_ctrls.perBankWrBursts::6                16                       # Per bank write bursts
system.mem_ctrls.perBankWrBursts::7                 2                       # Per bank write bursts
system.mem_ctrls.perBankWrBursts::8                 0                       # Per bank write bursts
system.mem_ctrls.perBankWrBursts::9                 0                       # Per bank write bursts
system.mem_ctrls.perBankWrBursts::10                3                       # Per bank write bursts
system.mem_ctrls.perBankWrBursts::11                0                       # Per bank write bursts
system.mem_ctrls.perBankWrBursts::12                6                       # Per bank write bursts
system.mem_ctrls.perBankWrBursts::13                9                       # Per bank write bursts
system.mem_ctrls.perBankWrBursts::14                0                       # Per bank write bursts
system.mem_ctrls.perBankWrBursts::15                4                       # Per bank write bursts
system.mem_ctrls.avgRdQLen                       1.62                       # Average read queue length when enqueuing
system.mem_ctrls.avgWrQLen                      11.54                       # Average write queue length when enqueuing
system.mem_ctrls.totQLat                      7380500                       # Total ticks spent queuing
system.mem_ctrls.totBusLat                    3820000                       # Total ticks spent in databus transfers
system.mem_ctrls.totMemAccLat                21705500                       # Total ticks spent from burst creation until serviced by the DRAM
system.mem_ctrls.avgQLat                      9660.34                       # Average queueing delay per DRAM burst
system.mem_ctrls.avgBusLat                    5000.00                       # Average bus latency per DRAM burst
system.mem_ctrls.avgMemAccLat                28410.34                       # Average memory access latency per DRAM burst
system.mem_ctrls.numRdRetry                         0                       # Number of times read queue was full causing retry
system.mem_ctrls.numWrRetry                         0                       # Number of times write queue was full causing retry
system.mem_ctrls.readRowHits                      605                       # Number of row buffer hits during reads
system.mem_ctrls.writeRowHits                      52                       # Number of row buffer hits during writes
system.mem_ctrls.readRowHitRate                 79.19                       # Row buffer hit rate for reads
system.mem_ctrls.writeRowHitRate                62.65                       # Row buffer hit rate for writes
system.mem_ctrls.readPktSize::0                     0                       # Read request sizes (log2)
system.mem_ctrls.readPktSize::1                     0                       # Read request sizes (log2)
system.mem_ctrls.readPktSize::2                     0                       # Read request sizes (log2)
system.mem_ctrls.readPktSize::3                     0                       # Read request sizes (log2)
system.mem_ctrls.readPktSize::4                     0                       # Read request sizes (log2)
system.mem_ctrls.readPktSize::5                     0                       # Read request sizes (log2)
system.mem_ctrls.readPktSize::6                   766                       # Read request sizes (log2)
system.mem_ctrls.writePktSize::0                    0                       # Write request sizes (log2)
system.mem_ctrls.writePktSize::1                    0                       # Write request sizes (log2)
system.mem_ctrls.writePktSize::2                    0                       # Write request sizes (log2)
system.mem_ctrls.writePktSize::3                    0                       # Write request sizes (log2)
system.mem_ctrls.writePktSize::4                    0                       # Write request sizes (log2)
system.mem_ctrls.writePktSize::5                    0                       # Write request sizes (log2)
system.mem_ctrls.writePktSize::6                   83                       # Write request sizes (log2)
system.mem_ctrls.rdQLenPdf::0                     420                       # What read queue length does an incoming req see
system.mem_ctrls.rdQLenPdf::1                     237                       # What read queue length does an incoming req see
system.mem_ctrls.rdQLenPdf::2                      82                       # What read queue length does an incoming req see
system.mem_ctrls.rdQLenPdf::3                      22                       # What read queue length does an incoming req see
system.mem_ctrls.rdQLenPdf::4                       3                       # What read queue length does an incoming req see
system.mem_ctrls.rdQLenPdf::5                       0                       # What read queue length does an incoming req see
system.mem_ctrls.rdQLenPdf::6                       0                       # What read queue length does an incoming req see
system.mem_ctrls.rdQLenPdf::7                       0                       # What read queue length does an incoming req see
system.mem_ctrls.rdQLenPdf::8                       0                       # What read queue length does an incoming req see
system.mem_ctrls.rdQLenPdf::9                       0                       # What read queue length does an incoming req see
system.mem_ctrls.rdQLenPdf::10                      0                       # What read queue length does an incoming req see
system.mem_ctrls.rdQLenPdf::11                      0                       # What read queue length does an incoming req see
system.mem_ctrls.rdQLenPdf::12                      0                       # What read queue length does an incoming req see
system.mem_ctrls.rdQLenPdf::13                      0                       # What read queue length does an incoming req see
system.mem_ctrls.rdQLenPdf::14                      0                       # What read queue length does an incoming req see
system.mem_ctrls.rdQLenPdf::15                      0                       # What read queue length does an incoming req see
system.mem_ctrls.rdQLenPdf::16                      0                       # What read queue length does an incoming req see
system.mem_ctrls.rdQLenPdf::17                      0                       # What read queue length does an incoming req see
system.mem_ctrls.rdQLenPdf::18                      0                       # What read queue length does an incoming req see
system.mem_ctrls.rdQLenPdf::19                      0                       # What read queue length does an incoming req see
system.mem_ctrls.rdQLenPdf::20                      0                       # What read queue length does an incoming req see
system.mem_ctrls.rdQLenPdf::21                      0                       # What read queue length does an incoming req see
system.mem_ctrls.rdQLenPdf::22                      0                       # What read queue length does an incoming req see
system.mem_ctrls.rdQLenPdf::23                      0                       # What read queue length does an incoming req see
system.mem_ctrls.rdQLenPdf::24                      0                       # What read queue length does an incoming req see
system.mem_ctrls.rdQLenPdf::25                      0                       # What read queue length does an incoming req see
system.mem_ctrls.rdQLenPdf::26                      0                       # What read queue length does an incoming req see
system.mem_ctrls.rdQLenPdf::27                      0                       # What read queue length does an incoming req see
system.mem_ctrls.rdQLenPdf::28                      0                       # What read queue length does an incoming req see
system.mem_ctrls.rdQLenPdf::29                      0                       # What read queue length does an incoming req see
system.mem_ctrls.rdQLenPdf::30                      0                       # What read queue length does an incoming req see
system.mem_ctrls.rdQLenPdf::31                      0                       # What read queue length does an incoming req see
system.mem_ctrls.wrQLenPdf::0                       1                       # What write queue length does an incoming req see
system.mem_ctrls.wrQLenPdf::1                       1                       # What write queue length does an incoming req see
system.mem_ctrls.wrQLenPdf::2                       1                       # What write queue length does an incoming req see
system.mem_ctrls.wrQLenPdf::3                       1                       # What write queue length does an incoming req see
system.mem_ctrls.wrQLenPdf::4                       1                       # What write queue length does an incoming req see
system.mem_ctrls.wrQLenPdf::5                       1                       # What write queue length does an incoming req see
system.mem_ctrls.wrQLenPdf::6                       1                       # What write queue length does an incoming req see
system.mem_ctrls.wrQLenPdf::7                       1                       # What write queue length does an incoming req see
system.mem_ctrls.wrQLenPdf::8                       1                       # What write queue length does an incoming req see
system.mem_ctrls.wrQLenPdf::9                       1                       # What write queue length does an incoming req see
system.mem_ctrls.wrQLenPdf::10                      1                       # What write queue length does an incoming req see
system.mem_ctrls.wrQLenPdf::11                      1                       # What write queue length does an incoming req see
system.mem_ctrls.wrQLenPdf::12                      1                       # What write queue length does an incoming req see
system.mem_ctrls.wrQLenPdf::13                      1                       # What write queue length does an incoming req see
system.mem_ctrls.wrQLenPdf::14                      1                       # What write queue length does an incoming req see
system.mem_ctrls.wrQLenPdf::15                      2                       # What write queue length does an incoming req see
system.mem_ctrls.wrQLenPdf::16                      2                       # What write queue length does an incoming req see
system.mem_ctrls.wrQLenPdf::17                      3                       # What write queue length does an incoming req see
system.mem_ctrls.wrQLenPdf::18                      4                       # What write queue length does an incoming req see
system.mem_ctrls.wrQLenPdf::19                      4                       # What write queue length does an incoming req see
system.mem_ctrls.wrQLenPdf::20                      4                       # What write queue length does an incoming req see
system.mem_ctrls.wrQLenPdf::21                      4                       # What write queue length does an incoming req see
system.mem_ctrls.wrQLenPdf::22                      4                       # What write queue length does an incoming req see
system.mem_ctrls.wrQLenPdf::23                      4                       # What write queue length does an incoming req see
system.mem_ctrls.wrQLenPdf::24                      4                       # What write queue length does an incoming req see
system.mem_ctrls.wrQLenPdf::25                      4                       # What write queue length does an incoming req see
system.mem_ctrls.wrQLenPdf::26                      4                       # What write queue length does an incoming req see
system.mem_ctrls.wrQLenPdf::27                      4                       # What write queue length does an incoming req see
system.mem_ctrls.wrQLenPdf::28                      5                       # What write queue length does an incoming req see
system.mem_ctrls.wrQLenPdf::29                      4                       # What write queue length does an incoming req see
system.mem_ctrls.wrQLenPdf::30                      4                       # What write queue length does an incoming req see
system.mem_ctrls.wrQLenPdf::31                      4                       # What write queue length does an incoming req see
system.mem_ctrls.wrQLenPdf::32                      4                       # What write queue length does an incoming req see
system.mem_ctrls.wrQLenPdf::33                      0                       # What write queue length does an incoming req see
system.mem_ctrls.wrQLenPdf::34                      0                       # What write queue length does an incoming req see
system.mem_ctrls.wrQLenPdf::35                      0                       # What write queue length does an incoming req see
system.mem_ctrls.wrQLenPdf::36                      0                       # What write queue length does an incoming req see
system.mem_ctrls.wrQLenPdf::37                      0                       # What write queue length does an incoming req see
system.mem_ctrls.wrQLenPdf::38                      0                       # What write queue length does an incoming req see
system.mem_ctrls.wrQLenPdf::39                      0                       # What write queue length does an incoming req see
system.mem_ctrls.wrQLenPdf::40                      0                       # What write queue length does an incoming req see
system.mem_ctrls.wrQLenPdf::41                      0                       # What write queue length does an incoming req see
system.mem_ctrls.wrQLenPdf::42                      0                       # What write queue length does an incoming req see
system.mem_ctrls.wrQLenPdf::43                      0                       # What write queue length does an incoming req see
system.mem_ctrls.wrQLenPdf::44                      0                       # What write queue length does an incoming req see
system.mem_ctrls.wrQLenPdf::45                      0                       # What write queue length does an incoming req see
system.mem_ctrls.wrQLenPdf::46                      0                       # What write queue length does an incoming req see
system.mem_ctrls.wrQLenPdf::47                      0                       # What write queue length does an incoming req see
system.mem_ctrls.wrQLenPdf::48                      0                       # What write queue length does an incoming req see
system.mem_ctrls.wrQLenPdf::49                      0                       # What write queue length does an incoming req see
system.mem_ctrls.wrQLenPdf::50                      0                       # What write queue length does an incoming req see
system.mem_ctrls.wrQLenPdf::51                      0                       # What write queue length does an incoming req see
system.mem_ctrls.wrQLenPdf::52                      0                       # What write queue length does an incoming req see
system.mem_ctrls.wrQLenPdf::53                      0                       # What write queue length does an incoming req see
system.mem_ctrls.wrQLenPdf::54                      0                       # What write queue length does an incoming req see
system.mem_ctrls.wrQLenPdf::55                      0                       # What write queue length does an incoming req see
system.mem_ctrls.wrQLenPdf::56                      0                       # What write queue length does an incoming req see
system.mem_ctrls.wrQLenPdf::57                      0                       # What write queue length does an incoming req see
system.mem_ctrls.wrQLenPdf::58                      0                       # What write queue length does an incoming req see
system.mem_ctrls.wrQLenPdf::59                      0                       # What write queue length does an incoming req see
system.mem_ctrls.wrQLenPdf::60                      0                       # What write queue length does an incoming req see
system.mem_ctrls.wrQLenPdf::61                      0                       # What write queue length does an incoming req see
system.mem_ctrls.wrQLenPdf::62                      0                       # What write queue length does an incoming req see
system.mem_ctrls.wrQLenPdf::63                      0                       # What write queue length does an incoming req see
system.mem_ctrls.bytesPerActivate::samples          170                       # Bytes accessed per row activation
system.mem_ctrls.bytesPerActivate::mean    307.952941                       # Bytes accessed per row activation
system.mem_ctrls.bytesPerActivate::gmean   196.066835                       # Bytes accessed per row activation
system.mem_ctrls.bytesPerActivate::stdev   302.598134                       # Bytes accessed per row activation
system.mem_ctrls.bytesPerActivate::0-127           52     30.59%     30.59% # Bytes accessed per row activation
system.mem_ctrls.bytesPerActivate::128-255           42     24.71%     55.29% # Bytes accessed per row activation
system.mem_ctrls.bytesPerActivate::256-383           26     15.29%     70.59% # Bytes accessed per row activation
system.mem_ctrls.bytesPerActivate::384-511           13      7.65%     78.24% # Bytes accessed per row activation
system.mem_ctrls.bytesPerActivate::512-639           10      5.88%     84.12% # Bytes accessed per row activation
system.mem_ctrls.bytesPerActivate::640-767            5      2.94%     87.06% # Bytes accessed per row activation
system.mem_ctrls.bytesPerActivate::768-895            4      2.35%     89.41% # Bytes accessed per row activation
system.mem_ctrls.bytesPerActivate::896-1023            2      1.18%     90.59% # Bytes accessed per row activation
system.mem_ctrls.bytesPerActivate::1024-1151           16      9.41%    100.00% # Bytes accessed per row activation
system.mem_ctrls.bytesPerActivate::total          170                       # Bytes accessed per row activation
system.mem_ctrls.rdPerTurnAround::samples            4                       # Reads before turning the bus around for writes
system.mem_ctrls.rdPerTurnAround::mean            187                       # Reads before turning the bus around for writes
system.mem_ctrls.rdPerTurnAround::gmean     70.683439                       # Reads before turning the bus around for writes
system.mem_ctrls.rdPerTurnAround::stdev    305.394826                       # Reads before turning the bus around for writes
system.mem_ctrls.rdPerTurnAround::0-31              2     50.00%     50.00% # Reads before turning the bus around for writes
system.mem_ctrls.rdPerTurnAround::32-63             1     25.00%     75.00% # Reads before turning the bus around for writes
system.mem_ctrls.rdPerTurnAround::640-671            1     25.00%    100.00% # Reads before turning the bus around for writes
system.mem_ctrls.rdPerTurnAround::total             4                       # Reads before turning the bus around for writes
system.mem_ctrls.wrPerTurnAround::samples            4                       # Writes before turning the bus around for reads
system.mem_ctrls.wrPerTurnAround::mean      16.500000                       # Writes before turning the bus around for reads
system.mem_ctrls.wrPerTurnAround::gmean     16.478137                       # Writes before turning the bus around for reads
system.mem_ctrls.wrPerTurnAround::stdev             1                       # Writes before turning the bus around for reads
system.mem_ctrls.wrPerTurnAround::16                3     75.00%     75.00% # Writes before turning the bus around for reads
system.mem_ctrls.wrPerTurnAround::18                1     25.00%    100.00% # Writes before turning the bus around for reads
system.mem_ctrls.wrPerTurnAround::total             4                       # Writes before turning the bus around for reads
system.mem_ctrls.bytesReadDRAM                  48896                       # Total number of bytes read from DRAM
system.mem_ctrls.bytesReadWrQ                     128                       # Total number of bytes read from write queue
system.mem_ctrls.bytesWritten                    4224                       # Total number of bytes written to DRAM
system.mem_ctrls.bytesReadSys                   49024                       # Total read bytes from the system interface side
system.mem_ctrls.bytesWrittenSys                 5312                       # Total written bytes from the system interface side
system.mem_ctrls.avgRdBW                      1404.11                       # Average DRAM read bandwidth in MiByte/s
system.mem_ctrls.avgWrBW                       121.30                       # Average achieved write bandwidth in MiByte/s
system.mem_ctrls.avgRdBWSys                   1407.78                       # Average system read bandwidth in MiByte/s
system.mem_ctrls.avgWrBWSys                    152.54                       # Average system write bandwidth in MiByte/s
system.mem_ctrls.peakBW                      12800.00                       # Theoretical peak bandwidth in MiByte/s
system.mem_ctrls.busUtil                        11.92                       # Data bus utilization in percentage
system.mem_ctrls.busUtilRead                    10.97                       # Data bus utilization in percentage for reads
system.mem_ctrls.busUtilWrite                    0.95                       # Data bus utilization in percentage for writes
system.mem_ctrls.totGap                      34730000                       # Total gap between requests
system.mem_ctrls.avgGap                      40906.95                       # Average gap between requests
system.mem_ctrls.masterReadBytes::.cpu.inst        33536                       # Per-master bytes read from memory
system.mem_ctrls.masterReadBytes::.cpu.data        15360                       # Per-master bytes read from memory
system.mem_ctrls.masterWriteBytes::.writebacks         4224                       # Per-master bytes write to memory
system.mem_ctrls.masterReadRate::.cpu.inst 963027840.395135402679                       # Per-master bytes read from memory rate (Bytes/sec)
system.mem_ctrls.masterReadRate::.cpu.data 441081453.616092562675                       # Per-master bytes read from memory rate (Bytes/sec)
system.mem_ctrls.masterWriteRate::.writebacks 121297399.744425445795                       # Per-master bytes write to memory rate (Bytes/sec)
system.mem_ctrls.masterReadAccesses::.cpu.inst          526                       # Per-master read serviced memory accesses
system.mem_ctrls.masterReadAccesses::.cpu.data          240                       # Per-master read serviced memory accesses
[...]
system.cpu.icache.ReadReq_mshr_miss_latency::.cpu.inst      3614500                       # number of ReadReq MSHR miss cycles
system.cpu.icache.ReadReq_mshr_miss_latency::total      3614500                       # number of ReadReq MSHR miss cycles
system.cpu.icache.ReadReq_mshr_miss_rate::.cpu.inst     0.183946                       # mshr miss rate for ReadReq accesses
system.cpu.icache.ReadReq_mshr_miss_rate::total     0.183946                       # mshr miss rate for ReadReq accesses
system.cpu.icache.ReadReq_avg_mshr_miss_latency::.cpu.inst 65718.181818                       # average ReadReq mshr miss latency
system.cpu.icache.ReadReq_avg_mshr_miss_latency::total 65718.181818                       # average ReadReq mshr miss latency
system.cpu.icache.tags.pwrStateResidencyTicks::UNDEFINED      3189000                       # Cumulative time (in ticks) in various power states
system.cpu.icache.tags.tagsinuse           461.351837                       # Cycle average of tags in use
system.cpu.icache.tags.total_refs              109866                       # Total number of references to valid blocks.
system.cpu.icache.tags.sampled_refs               500                       # Sample count of references to valid blocks.
system.cpu.icache.tags.avg_refs            219.732000                       # Average number of references to valid blocks.
system.cpu.icache.tags.warmup_cycle                 0                       # Cycle when the warmup percentage was hit.
system.cpu.icache.tags.occ_blocks::.cpu.inst   461.351837                       # Average occupied blocks per requestor
system.cpu.icache.tags.occ_percent::.cpu.inst     0.901078                       # Average percentage of cache occupancy
system.cpu.icache.tags.occ_percent::total     0.901078                       # Average percentage of cache occupancy
system.cpu.icache.tags.occ_task_id_blocks::1024          470                       # Occupied blocks per task id
system.cpu.icache.tags.age_task_id_blocks_1024::0           54                       # Occupied blocks per task id
system.cpu.icache.tags.age_task_id_blocks_1024::2          416                       # Occupied blocks per task id
system.cpu.icache.tags.occ_task_id_percent::1024     0.917969                       # Percentage of cache occupancy per task id
system.cpu.icache.tags.tag_accesses              1250                       # Number of tag accesses
system.cpu.icache.tags.data_accesses             1250                       # Number of data accesses
system.cpu.dtb.walker.pwrStateResidencyTicks::UNDEFINED      3189000                       # Cumulative time (in ticks) in various power states
system.cpu.interrupts.clk_domain.clock           8000                       # Clock period in ticks
system.cpu.itb_walker_cache.pwrStateResidencyTicks::UNDEFINED      3189000                       # Cumulative time (in ticks) in various power states
system.cpu.itb_walker_cache.blocked_cycles::no_mshrs            0                       # number of cycles access was blocked
system.cpu.itb_walker_cache.blocked_cycles::no_targets            0                       # number of cycles access was blocked
system.cpu.itb_walker_cache.blocked::no_mshrs            0                       # number of cycles access was blocked
system.cpu.itb_walker_cache.blocked::no_targets            0                       # number of cycles access was blocked
system.cpu.itb_walker_cache.avg_blocked_cycles::no_mshrs          nan                       # average number of cycles each access was blocked
system.cpu.itb_walker_cache.avg_blocked_cycles::no_targets          nan                       # average number of cycles each access was blocked
system.cpu.itb_walker_cache.replacements            0                       # number of replacements
system.cpu.itb_walker_cache.tags.pwrStateResidencyTicks::UNDEFINED      3189000                       # Cumulative time (in ticks) in various power states
system.cpu.itb_walker_cache.tags.tagsinuse            0                       # Cycle average of tags in use
system.cpu.itb_walker_cache.tags.total_refs            0                       # Total number of references to valid blocks.
system.cpu.itb_walker_cache.tags.sampled_refs            0                       # Sample count of references to valid blocks.
system.cpu.itb_walker_cache.tags.avg_refs          nan                       # Average number of references to valid blocks.
system.cpu.itb_walker_cache.tags.warmup_cycle            0                       # Cycle when the warmup percentage was hit.
system.cpu.itb_walker_cache.tags.tag_accesses            0                       # Number of tag accesses
system.cpu.itb_walker_cache.tags.data_accesses            0                       # Number of data accesses
system.cpu.itb.walker.pwrStateResidencyTicks::UNDEFINED      3189000                       # Cumulative time (in ticks) in various power states
system.cpu.dtb_walker_cache.pwrStateResidencyTicks::UNDEFINED      3189000                       # Cumulative time (in ticks) in various power states
system.cpu.dtb_walker_cache.blocked_cycles::no_mshrs            0                       # number of cycles access was blocked
system.cpu.dtb_walker_cache.blocked_cycles::no_targets            0                       # number of cycles access was blocked
system.cpu.dtb_walker_cache.blocked::no_mshrs            0                       # number of cycles access was blocked
system.cpu.dtb_walker_cache.blocked::no_targets            0                       # number of cycles access was blocked
system.cpu.dtb_walker_cache.avg_blocked_cycles::no_mshrs          nan                       # average number of cycles each access was blocked
system.cpu.dtb_walker_cache.avg_blocked_cycles::no_targets          nan                       # average number of cycles each access was blocked
system.cpu.dtb_walker_cache.replacements            0                       # number of replacements
system.cpu.dtb_walker_cache.tags.pwrStateResidencyTicks::UNDEFINED      3189000                       # Cumulative time (in ticks) in various power states
system.cpu.dtb_walker_cache.tags.tagsinuse            0                       # Cycle average of tags in use
system.cpu.dtb_walker_cache.tags.total_refs            0                       # Total number of references to valid blocks.
system.cpu.dtb_walker_cache.tags.sampled_refs            0                       # Sample count of references to valid blocks.
system.cpu.dtb_walker_cache.tags.avg_refs          nan                       # Average number of references to valid blocks.
system.cpu.dtb_walker_cache.tags.warmup_cycle            0                       # Cycle when the warmup percentage was hit.
system.cpu.dtb_walker_cache.tags.tag_accesses            0                       # Number of tag accesses
system.cpu.dtb_walker_cache.tags.data_accesses            0                       # Number of data accesses
system.cpu.dcache.pwrStateResidencyTicks::UNDEFINED      3189000                       # Cumulative time (in ticks) in various power states
system.cpu.dcache.demand_hits::.cpu.data          295                       # number of demand (read+write) hits
system.cpu.dcache.demand_hits::total              295                       # number of demand (read+write) hits
system.cpu.dcache.overall_hits::.cpu.data          295                       # number of overall hits
system.cpu.dcache.overall_hits::total             295                       # number of overall hits
system.cpu.dcache.demand_misses::.cpu.data           48                       # number of demand (read+write) misses
system.cpu.dcache.demand_misses::total             48                       # number of demand (read+write) misses
system.cpu.dcache.overall_misses::.cpu.data           48                       # number of overall misses
system.cpu.dcache.overall_misses::total            48                       # number of overall misses
system.cpu.dcache.demand_miss_latency::.cpu.data      2684500                       # number of demand (read+write) miss cycles
system.cpu.dcache.demand_miss_latency::total      2684500                       # number of demand (read+write) miss cycles
system.cpu.dcache.overall_miss_latency::.cpu.data      2684500                       # number of overall miss cycles
system.cpu.dcache.overall_miss_latency::total      2684500                       # number of overall miss cycles
system.cpu.dcache.demand_accesses::.cpu.data          343                       # number of demand (read+write) accesses
system.cpu.dcache.demand_accesses::total          343                       # number of demand (read+write) accesses
system.cpu.dcache.overall_accesses::.cpu.data          343                       # number of overall (read+write) accesses
system.cpu.dcache.overall_accesses::total          343                       # number of overall (read+write) accesses
system.cpu.dcache.demand_miss_rate::.cpu.data     0.139942                       # miss rate for demand accesses
system.cpu.dcache.demand_miss_rate::total     0.139942                       # miss rate for demand accesses
system.cpu.dcache.overall_miss_rate::.cpu.data     0.139942                       # miss rate for overall accesses
system.cpu.dcache.overall_miss_rate::total     0.139942                       # miss rate for overall accesses
system.cpu.dcache.demand_avg_miss_latency::.cpu.data 55927.083333                       # average overall miss latency
system.cpu.dcache.demand_avg_miss_latency::total 55927.083333                       # average overall miss latency
system.cpu.dcache.overall_avg_miss_latency::.cpu.data 55927.083333                       # average overall miss latency
system.cpu.dcache.overall_avg_miss_latency::total 55927.083333                       # average overall miss latency
system.cpu.dcache.blocked_cycles::no_mshrs            0                       # number of cycles access was blocked
system.cpu.dcache.blocked_cycles::no_targets            0                       # number of cycles access was blocked
system.cpu.dcache.blocked::no_mshrs                 0                       # number of cycles access was blocked
system.cpu.dcache.blocked::no_targets               0                       # number of cycles access was blocked
system.cpu.dcache.avg_blocked_cycles::no_mshrs          nan                       # average number of cycles each access was blocked
system.cpu.dcache.avg_blocked_cycles::no_targets          nan                       # average number of cycles each access was blocked
system.cpu.dcache.demand_mshr_hits::.cpu.data           14                       # number of demand (read+write) MSHR hits
system.cpu.dcache.demand_mshr_hits::total           14                       # number of demand (read+write) MSHR hits
system.cpu.dcache.overall_mshr_hits::.cpu.data           14                       # number of overall MSHR hits
system.cpu.dcache.overall_mshr_hits::total           14                       # number of overall MSHR hits
system.cpu.dcache.demand_mshr_misses::.cpu.data           34                       # number of demand (read+write) MSHR misses
system.cpu.dcache.demand_mshr_misses::total           34                       # number of demand (read+write) MSHR misses
system.cpu.dcache.overall_mshr_misses::.cpu.data           34                       # number of overall MSHR misses
system.cpu.dcache.overall_mshr_misses::total           34                       # number of overall MSHR misses
system.cpu.dcache.demand_mshr_miss_latency::.cpu.data      1991000                       # number of demand (read+write) MSHR miss cycles
system.cpu.dcache.demand_mshr_miss_latency::total      1991000                       # number of demand (read+write) MSHR miss cycles
system.cpu.dcache.overall_mshr_miss_latency::.cpu.data      1991000                       # number of overall MSHR miss cycles
system.cpu.dcache.overall_mshr_miss_latency::total      1991000                       # number of overall MSHR miss cycles
system.cpu.dcache.demand_mshr_miss_rate::.cpu.data     0.099125                       # mshr miss rate for demand accesses
system.cpu.dcache.demand_mshr_miss_rate::total     0.099125                       # mshr miss rate for demand accesses
system.cpu.dcache.overall_mshr_miss_rate::.cpu.data     0.099125                       # mshr miss rate for overall accesses
system.cpu.dcache.overall_mshr_miss_rate::total     0.099125                       # mshr miss rate for overall accesses
system.cpu.dcache.demand_avg_mshr_miss_latency::.cpu.data 58558.823529                       # average overall mshr miss latency
system.cpu.dcache.demand_avg_mshr_miss_latency::total 58558.823529                       # average overall mshr miss latency
system.cpu.dcache.overall_avg_mshr_miss_latency::.cpu.data 58558.823529                       # average overall mshr miss latency
system.cpu.dcache.overall_avg_mshr_miss_latency::total 58558.823529                       # average overall mshr miss latency
system.cpu.dcache.replacements                     35                       # number of replacements
system.cpu.dcache.ReadReq_hits::.cpu.data          183                       # number of ReadReq hits
system.cpu.dcache.ReadReq_hits::total             183                       # number of ReadReq hits
system.cpu.dcache.ReadReq_misses::.cpu.data           45                       # number of ReadReq misses
system.cpu.dcache.ReadReq_misses::total            45                       # number of ReadReq misses
system.cpu.dcache.ReadReq_miss_latency::.cpu.data      2618000                       # number of ReadReq miss cycles
system.cpu.dcache.ReadReq_miss_latency::total      2618000                       # number of ReadReq miss cycles
system.cpu.dcache.ReadReq_accesses::.cpu.data          228                       # number of ReadReq accesses(hits+misses)
system.cpu.dcache.ReadReq_accesses::total          228                       # number of ReadReq accesses(hits+misses)
system.cpu.dcache.ReadReq_miss_rate::.cpu.data     0.197368                       # miss rate for ReadReq accesses
system.cpu.dcache.ReadReq_miss_rate::total     0.197368                       # miss rate for ReadReq accesses
system.cpu.dcache.ReadReq_avg_miss_latency::.cpu.data 58177.777778                       # average ReadReq miss latency
system.cpu.dcache.ReadReq_avg_miss_latency::total 58177.777778                       # average ReadReq miss latency
system.cpu.dcache.ReadReq_mshr_hits::.cpu.data           14                       # number of ReadReq MSHR hits
system.cpu.dcache.ReadReq_mshr_hits::total           14                       # number of ReadReq MSHR hits
system.cpu.dcache.ReadReq_mshr_misses::.cpu.data           31                       # number of ReadReq MSHR misses
system.cpu.dcache.ReadReq_mshr_misses::total           31                       # number of ReadReq MSHR misses
system.cpu.dcache.ReadReq_mshr_miss_latency::.cpu.data      1927500                       # number of ReadReq MSHR miss cycles
system.cpu.dcache.ReadReq_mshr_miss_latency::total      1927500                       # number of ReadReq MSHR miss cycles
system.cpu.dcache.ReadReq_mshr_miss_rate::.cpu.data     0.135965                       # mshr miss rate for ReadReq accesses
system.cpu.dcache.ReadReq_mshr_miss_rate::total     0.135965                       # mshr miss rate for ReadReq accesses
system.cpu.dcache.ReadReq_avg_mshr_miss_latency::.cpu.data 62177.419355                       # average ReadReq mshr miss latency
system.cpu.dcache.ReadReq_avg_mshr_miss_latency::total 62177.419355                       # average ReadReq mshr miss latency
system.cpu.dcache.WriteReq_hits::.cpu.data          112                       # number of WriteReq hits
system.cpu.dcache.WriteReq_hits::total            112                       # number of WriteReq hits
system.cpu.dcache.WriteReq_misses::.cpu.data            3                       # number of WriteReq misses
system.cpu.dcache.WriteReq_misses::total            3                       # number of WriteReq misses
system.cpu.dcache.WriteReq_miss_latency::.cpu.data        66500                       # number of WriteReq miss cycles
system.cpu.dcache.WriteReq_miss_latency::total        66500                       # number of WriteReq miss cycles
system.cpu.dcache.WriteReq_accesses::.cpu.data          115                       # number of WriteReq accesses(hits+misses)
system.cpu.dcache.WriteReq_accesses::total          115                       # number of WriteReq accesses(hits+misses)
system.cpu.dcache.WriteReq_miss_rate::.cpu.data     0.026087                       # miss rate for WriteReq accesses
system.cpu.dcache.WriteReq_miss_rate::total     0.026087                       # miss rate for WriteReq accesses
system.cpu.dcache.WriteReq_avg_miss_latency::.cpu.data 22166.666667                       # average WriteReq miss latency
system.cpu.dcache.WriteReq_avg_miss_latency::total 22166.666667                       # average WriteReq miss latency
system.cpu.dcache.WriteReq_mshr_misses::.cpu.data            3                       # number of WriteReq MSHR misses
system.cpu.dcache.WriteReq_mshr_misses::total            3                       # number of WriteReq MSHR misses
system.cpu.dcache.WriteReq_mshr_miss_latency::.cpu.data        63500                       # number of WriteReq MSHR miss cycles
system.cpu.dcache.WriteReq_mshr_miss_latency::total        63500                       # number of WriteReq MSHR miss cycles
system.cpu.dcache.WriteReq_mshr_miss_rate::.cpu.data     0.026087                       # mshr miss rate for WriteReq accesses
system.cpu.dcache.WriteReq_mshr_miss_rate::total     0.026087                       # mshr miss rate for WriteReq accesses
system.cpu.dcache.WriteReq_avg_mshr_miss_latency::.cpu.data 21166.666667                       # average WriteReq mshr miss latency
system.cpu.dcache.WriteReq_avg_mshr_miss_latency::total 21166.666667                       # average WriteReq mshr miss latency
system.cpu.dcache.tags.pwrStateResidencyTicks::UNDEFINED      3189000                       # Cumulative time (in ticks) in various power states
system.cpu.dcache.tags.tagsinuse                  512                       # Cycle average of tags in use
system.cpu.dcache.tags.total_refs              151078                       # Total number of references to valid blocks.
system.cpu.dcache.tags.sampled_refs               547                       # Sample count of references to valid blocks.
system.cpu.dcache.tags.avg_refs            276.193784                       # Average number of references to valid blocks.
system.cpu.dcache.tags.warmup_cycle                 0                       # Cycle when the warmup percentage was hit.
system.cpu.dcache.tags.occ_blocks::.cpu.data          512                       # Average occupied blocks per requestor
system.cpu.dcache.tags.occ_percent::.cpu.data            1                       # Average percentage of cache occupancy
system.cpu.dcache.tags.occ_percent::total            1                       # Average percentage of cache occupancy
system.cpu.dcache.tags.occ_task_id_blocks::1024          512                       # Occupied blocks per task id
system.cpu.dcache.tags.age_task_id_blocks_1024::0           54                       # Occupied blocks per task id
system.cpu.dcache.tags.age_task_id_blocks_1024::1           15                       # Occupied blocks per task id
system.cpu.dcache.tags.age_task_id_blocks_1024::2          443                       # Occupied blocks per task id
system.cpu.dcache.tags.occ_task_id_percent::1024            1                       # Percentage of cache occupancy per task id
system.cpu.dcache.tags.tag_accesses              1407                       # Number of tag accesses
system.cpu.dcache.tags.data_accesses             1407                       # Number of data accesses

---------- End Simulation Statistics   ----------
