gem5 Simulator System.  http://gem5.org
gem5 is copyrighted software; use the --copyright option for details.

gem5 compiled Feb 28 2020 17:14:42
gem5 started Feb 28 2020 22:56:26
gem5 executing on tarun-s, pid 19310
command line: build/X86/gem5.opt configs/example/se.py --cmd=/home/tarun/Desktop/gem5/tests/my_progs/spectre_test_2 --cpu-type=DerivO3CPU --caches

Global frequency set at 1000000000000 ticks per second
**** REAL SIMULATION ****

Address of i = 0x7fffffffece0 

Address of j = 0x7fffffffece4 

Address of x = 0x6bc3a0 

Address of y = 0x6bc424 

Address of array1 = 0x6bc440 

Address of array2 = 0x6bc3c0 

Address of array3 = 0x6bc5e0 
HERE 1 : enable_memreq_tracing = 1
-- ISN: (84182) : L from (0x7fffffffece0) -- of Size = (4) 

-- ISN: (84183) : L from (0x7fffffffece0) -- of Size = (4) 

-- ISN: (84178) : S -> 0x(0) at (0x7fffffffece0) -- Size = (4) 

-- ISN: (84189) : L from (0x7fffffffece0) -- of Size = (4) 

-- Sqsh -> ISN (84181)

-- ISN: (84223) : L from (0x7fffffffece0) -- of Size = (4) 

-- ISN: (84230) : S -> 0x(0) at (0x7fffffffece4) -- Size = (4) 

-- ISN: (84234) : L from (0x7fffffffece4) -- of Size = (4) 

-- ISN: (84238) : S -> 0x(77) at (0x7fffffffecd8) -- Size = (8) 

-- ISN: (84241) : L from (0x7fffffffece4) -- of Size = (4) 

-- ISN: (84245) : L from (0x7fffffffece4) -- of Size = (4) 

-- Sqsh -> ISN (84233)

-- Sqsh -> ISN (84228)

-- ISN: (84280) : L from (0x7fffffffece0) -- of Size = (4) 

-- ISN: (84281) : L from (0x7fffffffece0) -- of Size = (4) 

-- ISN: (84287) : L from (0x7fffffffece0) -- of Size = (4) 

-- ISN: (84291) : L from (0x7fffffffece0) -- of Size = (4) 

-- ISN: (84298) : S -> 0x(0) at (0x7fffffffece4) -- Size = (4) 

-- ISN: (84302) : L from (0x7fffffffece4) -- of Size = (4) 

-- ISN: (84286) : S -> 0x(0) at (0x6bc440) -- Size = (4) 

-- ISN: (84306) : S -> 0x(77) at (0x7fffffffecd8) -- Size = (8) 

-- ISN: (84309) : L from (0x7fffffffece4) -- of Size = (4) 

-- ISN: (84290) : S -> 0x(1) at (0x7fffffffece0) -- Size = (4) 

-- ISN: (84313) : L from (0x7fffffffece4) -- of Size = (4) 

-- Sqsh -> ISN (84301)

-- Sqsh -> ISN (84290)

-- ISN: (84348) : L from (0x7fffffffece0) -- of Size = (4) 

-- ISN: (84355) : S -> 0x(0) at (0x7fffffffece4) -- Size = (4) 

-- ISN: (84359) : L from (0x7fffffffece4) -- of Size = (4) 

-- ISN: (84368) : S -> 0x(92) at (0x7fffffffecd8) -- Size = (8) 

-- ISN: (84376) : L from (0x7fffffffece0) -- of Size = (4) 

-- Sqsh -> ISN (84353)

-- ISN: (84394) : L from (0x7fffffffece0) -- of Size = (4) 

-- ISN: (84395) : L from (0x7fffffffece0) -- of Size = (4) 

-- ISN: (84401) : L from (0x7fffffffece0) -- of Size = (4) 

-- ISN: (84400) : S -> 0x(1) at (0x6bc444) -- Size = (4) 

-- ISN: (84412) : S -> 0x(0) at (0x7fffffffece4) -- Size = (4) 

-- ISN: (84416) : L from (0x7fffffffece4) -- of Size = (4) 

-- ISN: (84404) : S -> 0x(2) at (0x7fffffffece0) -- Size = (4) 

-- ISN: (84420) : S -> 0x(77) at (0x7fffffffecd8) -- Size = (8) 

-- ISN: (84423) : L from (0x7fffffffece4) -- of Size = (4) 

-- ISN: (84427) : L from (0x7fffffffece4) -- of Size = (4) 

-- ISN: (84405) : L from (0x7fffffffece0) -- of Size = (4) 

-- Sqsh -> ISN (84415)

-- Sqsh -> ISN (84410)

-- ISN: (84470) : L from (0x7fffffffece0) -- of Size = (4) 

-- ISN: (84471) : L from (0x7fffffffece0) -- of Size = (4) 

-- ISN: (84477) : L from (0x7fffffffece0) -- of Size = (4) 

-- ISN: (84476) : S -> 0x(2) at (0x6bc448) -- Size = (4) 

-- ISN: (84488) : S -> 0x(0) at (0x7fffffffece4) -- Size = (4) 

-- ISN: (84480) : S -> 0x(3) at (0x7fffffffece0) -- Size = (4) 

-- ISN: (84496) : S -> 0x(77) at (0x7fffffffecd8) -- Size = (8) 

-- ISN: (84499) : L from (0x7fffffffece4) -- of Size = (4) 

-- ISN: (84503) : L from (0x7fffffffece4) -- of Size = (4) 

-- ISN: (84481) : L from (0x7fffffffece0) -- of Size = (4) 

-- ISN: (84492) : L from (0x7fffffffece4) -- of Size = (4) 

-- Sqsh -> ISN (84491)

-- Sqsh -> ISN (84486)

-- ISN: (84546) : L from (0x7fffffffece0) -- of Size = (4) 

-- ISN: (84547) : L from (0x7fffffffece0) -- of Size = (4) 

-- ISN: (84553) : L from (0x7fffffffece0) -- of Size = (4) 

-- ISN: (84552) : S -> 0x(3) at (0x6bc44c) -- Size = (4) 

-- ISN: (84564) : S -> 0x(0) at (0x7fffffffece4) -- Size = (4) 

-- ISN: (84568) : L from (0x7fffffffece4) -- of Size = (4) 

-- ISN: (84556) : S -> 0x(4) at (0x7fffffffece0) -- Size = (4) 

-- ISN: (84557) : L from (0x7fffffffece0) -- of Size = (4) 

-- ISN: (84577) : S -> 0x(92) at (0x7fffffffecd8) -- Size = (8) 

-- ISN: (84585) : L from (0x7fffffffece0) -- of Size = (4) 

-- Sqsh -> ISN (84567)

-- Sqsh -> ISN (84562)

-- ISN: (84611) : L from (0x7fffffffece0) -- of Size = (4) 

-- ISN: (84612) : L from (0x7fffffffece0) -- of Size = (4) 

-- ISN: (84618) : L from (0x7fffffffece0) -- of Size = (4) 

-- ISN: (84628) : L from (0x7fffffffece0) -- of Size = (4) 

-- ISN: (84617) : S -> 0x(4) at (0x6bc450) -- Size = (4) 

-- ISN: (84629) : L from (0x7fffffffece0) -- of Size = (4) 

-- ISN: (84635) : L from (0x7fffffffece0) -- of Size = (4) 

-- ISN: (84621) : S -> 0x(5) at (0x7fffffffece0) -- Size = (4) 

-- ISN: (84622) : L from (0x7fffffffece0) -- of Size = (4) 

-- Sqsh -> ISN (84627)

-- ISN: (84662) : L from (0x7fffffffece0) -- of Size = (4) 

-- ISN: (84663) : L from (0x7fffffffece0) -- of Size = (4) 

-- ISN: (84669) : L from (0x7fffffffece0) -- of Size = (4) 

-- ISN: (84668) : S -> 0x(5) at (0x6bc454) -- Size = (4) 

-- ISN: (84673) : L from (0x7fffffffece0) -- of Size = (4) 

-- ISN: (84672) : S -> 0x(6) at (0x7fffffffece0) -- Size = (4) 

-- ISN: (84680) : L from (0x7fffffffece0) -- of Size = (4) 

-- ISN: (84679) : L from (0x7fffffffece0) -- of Size = (4) 

-- ISN: (84686) : L from (0x7fffffffece0) -- of Size = (4) 

-- Sqsh -> ISN (84672)

-- ISN: (84706) : L from (0x7fffffffece0) -- of Size = (4) 

-- ISN: (84712) : L from (0x7fffffffece0) -- of Size = (4) 

-- ISN: (84713) : L from (0x7fffffffece0) -- of Size = (4) 

-- ISN: (84719) : L from (0x7fffffffece0) -- of Size = (4) 

-- ISN: (84718) : S -> 0x(6) at (0x6bc458) -- Size = (4) 

-- ISN: (84730) : L from (0x7fffffffece0) -- of Size = (4) 

-- ISN: (84722) : S -> 0x(7) at (0x7fffffffece0) -- Size = (4) 

-- ISN: (84723) : L from (0x7fffffffece0) -- of Size = (4) 

-- ISN: (84729) : L from (0x7fffffffece0) -- of Size = (4) 

-- ISN: (84736) : L from (0x7fffffffece0) -- of Size = (4) 

-- Sqsh -> ISN (84729)

-- ISN: (84756) : L from (0x7fffffffece0) -- of Size = (4) 

-- ISN: (84762) : L from (0x7fffffffece0) -- of Size = (4) 

-- ISN: (84761) : S -> 0x(7) at (0x6bc45c) -- Size = (4) 

-- ISN: (84765) : S -> 0x(8) at (0x7fffffffece0) -- Size = (4) 

-- ISN: (84766) : L from (0x7fffffffece0) -- of Size = (4) 

-- ISN: (84772) : L from (0x7fffffffece0) -- of Size = (4) 

-- ISN: (84773) : L from (0x7fffffffece0) -- of Size = (4) 

-- ISN: (84779) : L from (0x7fffffffece0) -- of Size = (4) 

-- ISN: (84778) : S -> 0x(8) at (0x6bc460) -- Size = (4) 

-- ISN: (84782) : S -> 0x(9) at (0x7fffffffece0) -- Size = (4) 

-- ISN: (84783) : L from (0x7fffffffece0) -- of Size = (4) 

-- ISN: (84789) : L from (0x7fffffffece0) -- of Size = (4) 

-- ISN: (84790) : L from (0x7fffffffece0) -- of Size = (4) 

-- ISN: (84796) : L from (0x7fffffffece0) -- of Size = (4) 

-- ISN: (84795) : S -> 0x(9) at (0x6bc464) -- Size = (4) 

-- ISN: (84799) : S -> 0x(a) at (0x7fffffffece0) -- Size = (4) 

-- ISN: (84800) : L from (0x7fffffffece0) -- of Size = (4) 

-- ISN: (84806) : L from (0x7fffffffece0) -- of Size = (4) 

-- ISN: (84807) : L from (0x7fffffffece0) -- of Size = (4) 

-- ISN: (84813) : L from (0x7fffffffece0) -- of Size = (4) 

-- ISN: (84812) : S -> 0x(a) at (0x6bc468) -- Size = (4) 

-- ISN: (84816) : S -> 0x(b) at (0x7fffffffece0) -- Size = (4) 

-- ISN: (84817) : L from (0x7fffffffece0) -- of Size = (4) 

-- ISN: (84823) : L from (0x7fffffffece0) -- of Size = (4) 

-- ISN: (84824) : L from (0x7fffffffece0) -- of Size = (4) 

-- ISN: (84830) : L from (0x7fffffffece0) -- of Size = (4) 

-- ISN: (84829) : S -> 0x(b) at (0x6bc46c) -- Size = (4) 

-- ISN: (84833) : S -> 0x(c) at (0x7fffffffece0) -- Size = (4) 

-- ISN: (84834) : L from (0x7fffffffece0) -- of Size = (4) 

-- ISN: (84840) : L from (0x7fffffffece0) -- of Size = (4) 

-- ISN: (84841) : L from (0x7fffffffece0) -- of Size = (4) 

-- ISN: (84847) : L from (0x7fffffffece0) -- of Size = (4) 

-- ISN: (84846) : S -> 0x(c) at (0x6bc470) -- Size = (4) 

-- ISN: (84850) : S -> 0x(d) at (0x7fffffffece0) -- Size = (4) 

-- ISN: (84851) : L from (0x7fffffffece0) -- of Size = (4) 

-- ISN: (84857) : L from (0x7fffffffece0) -- of Size = (4) 

-- ISN: (84858) : L from (0x7fffffffece0) -- of Size = (4) 

-- ISN: (84864) : L from (0x7fffffffece0) -- of Size = (4) 

-- ISN: (84863) : S -> 0x(d) at (0x6bc474) -- Size = (4) 

-- ISN: (84867) : S -> 0x(e) at (0x7fffffffece0) -- Size = (4) 

-- ISN: (84868) : L from (0x7fffffffece0) -- of Size = (4) 

-- ISN: (84874) : L from (0x7fffffffece0) -- of Size = (4) 

-- ISN: (84875) : L from (0x7fffffffece0) -- of Size = (4) 

-- ISN: (84881) : L from (0x7fffffffece0) -- of Size = (4) 

-- ISN: (84880) : S -> 0x(e) at (0x6bc478) -- Size = (4) 

-- ISN: (84884) : S -> 0x(f) at (0x7fffffffece0) -- Size = (4) 

-- ISN: (84885) : L from (0x7fffffffece0) -- of Size = (4) 

-- ISN: (84891) : L from (0x7fffffffece0) -- of Size = (4) 

-- ISN: (84892) : L from (0x7fffffffece0) -- of Size = (4) 

-- ISN: (84898) : L from (0x7fffffffece0) -- of Size = (4) 

-- ISN: (84897) : S -> 0x(f) at (0x6bc47c) -- Size = (4) 

-- ISN: (84901) : S -> 0x(10) at (0x7fffffffece0) -- Size = (4) 

-- ISN: (84902) : L from (0x7fffffffece0) -- of Size = (4) 

-- ISN: (84908) : L from (0x7fffffffece0) -- of Size = (4) 

-- ISN: (84909) : L from (0x7fffffffece0) -- of Size = (4) 

-- ISN: (84915) : L from (0x7fffffffece0) -- of Size = (4) 

-- ISN: (84914) : S -> 0x(10) at (0x6bc480) -- Size = (4) 

-- ISN: (84918) : S -> 0x(11) at (0x7fffffffece0) -- Size = (4) 

-- ISN: (84919) : L from (0x7fffffffece0) -- of Size = (4) 

-- ISN: (84925) : L from (0x7fffffffece0) -- of Size = (4) 

-- ISN: (84926) : L from (0x7fffffffece0) -- of Size = (4) 

-- ISN: (84932) : L from (0x7fffffffece0) -- of Size = (4) 

-- ISN: (84931) : S -> 0x(11) at (0x6bc484) -- Size = (4) 

-- ISN: (84935) : S -> 0x(12) at (0x7fffffffece0) -- Size = (4) 

-- ISN: (84936) : L from (0x7fffffffece0) -- of Size = (4) 

-- ISN: (84942) : L from (0x7fffffffece0) -- of Size = (4) 

-- ISN: (84943) : L from (0x7fffffffece0) -- of Size = (4) 

-- ISN: (84949) : L from (0x7fffffffece0) -- of Size = (4) 

-- ISN: (84948) : S -> 0x(12) at (0x6bc488) -- Size = (4) 

-- ISN: (84952) : S -> 0x(13) at (0x7fffffffece0) -- Size = (4) 

-- ISN: (84953) : L from (0x7fffffffece0) -- of Size = (4) 

-- ISN: (84959) : L from (0x7fffffffece0) -- of Size = (4) 

-- ISN: (84960) : L from (0x7fffffffece0) -- of Size = (4) 

-- ISN: (84966) : L from (0x7fffffffece0) -- of Size = (4) 

-- ISN: (84965) : S -> 0x(13) at (0x6bc48c) -- Size = (4) 

-- ISN: (84969) : S -> 0x(14) at (0x7fffffffece0) -- Size = (4) 

-- ISN: (84970) : L from (0x7fffffffece0) -- of Size = (4) 

-- ISN: (84976) : L from (0x7fffffffece0) -- of Size = (4) 

-- ISN: (84977) : L from (0x7fffffffece0) -- of Size = (4) 

-- ISN: (84983) : L from (0x7fffffffece0) -- of Size = (4) 

-- ISN: (84982) : S -> 0x(14) at (0x6bc490) -- Size = (4) 

-- ISN: (84986) : S -> 0x(15) at (0x7fffffffece0) -- Size = (4) 

-- ISN: (84987) : L from (0x7fffffffece0) -- of Size = (4) 

-- ISN: (84993) : L from (0x7fffffffece0) -- of Size = (4) 

-- ISN: (84994) : L from (0x7fffffffece0) -- of Size = (4) 

-- ISN: (85000) : L from (0x7fffffffece0) -- of Size = (4) 

-- ISN: (84999) : S -> 0x(15) at (0x6bc494) -- Size = (4) 

-- ISN: (85003) : S -> 0x(16) at (0x7fffffffece0) -- Size = (4) 

-- ISN: (85004) : L from (0x7fffffffece0) -- of Size = (4) 

-- ISN: (85010) : L from (0x7fffffffece0) -- of Size = (4) 

-- ISN: (85011) : L from (0x7fffffffece0) -- of Size = (4) 

-- ISN: (85017) : L from (0x7fffffffece0) -- of Size = (4) 

-- ISN: (85016) : S -> 0x(16) at (0x6bc498) -- Size = (4) 

-- ISN: (85020) : S -> 0x(17) at (0x7fffffffece0) -- Size = (4) 

-- ISN: (85021) : L from (0x7fffffffece0) -- of Size = (4) 

-- ISN: (85027) : L from (0x7fffffffece0) -- of Size = (4) 

-- ISN: (85028) : L from (0x7fffffffece0) -- of Size = (4) 

-- ISN: (85034) : L from (0x7fffffffece0) -- of Size = (4) 

-- ISN: (85033) : S -> 0x(17) at (0x6bc49c) -- Size = (4) 

-- ISN: (85037) : S -> 0x(18) at (0x7fffffffece0) -- Size = (4) 

-- ISN: (85038) : L from (0x7fffffffece0) -- of Size = (4) 

-- ISN: (85044) : L from (0x7fffffffece0) -- of Size = (4) 

-- ISN: (85045) : L from (0x7fffffffece0) -- of Size = (4) 

-- ISN: (85051) : L from (0x7fffffffece0) -- of Size = (4) 

-- ISN: (85050) : S -> 0x(18) at (0x6bc4a0) -- Size = (4) 

-- ISN: (85054) : S -> 0x(19) at (0x7fffffffece0) -- Size = (4) 

-- ISN: (85055) : L from (0x7fffffffece0) -- of Size = (4) 

-- ISN: (85061) : L from (0x7fffffffece0) -- of Size = (4) 

-- ISN: (85062) : L from (0x7fffffffece0) -- of Size = (4) 

-- ISN: (85068) : L from (0x7fffffffece0) -- of Size = (4) 

-- ISN: (85067) : S -> 0x(19) at (0x6bc4a4) -- Size = (4) 

-- ISN: (85071) : S -> 0x(1a) at (0x7fffffffece0) -- Size = (4) 

-- ISN: (85072) : L from (0x7fffffffece0) -- of Size = (4) 

-- ISN: (85078) : L from (0x7fffffffece0) -- of Size = (4) 

-- ISN: (85079) : L from (0x7fffffffece0) -- of Size = (4) 

-- ISN: (85085) : L from (0x7fffffffece0) -- of Size = (4) 

-- ISN: (85084) : S -> 0x(1a) at (0x6bc4a8) -- Size = (4) 

-- ISN: (85088) : S -> 0x(1b) at (0x7fffffffece0) -- Size = (4) 

-- ISN: (85089) : L from (0x7fffffffece0) -- of Size = (4) 

-- ISN: (85095) : L from (0x7fffffffece0) -- of Size = (4) 

-- ISN: (85096) : L from (0x7fffffffece0) -- of Size = (4) 

-- ISN: (85102) : L from (0x7fffffffece0) -- of Size = (4) 

-- ISN: (85101) : S -> 0x(1b) at (0x6bc4ac) -- Size = (4) 

-- ISN: (85105) : S -> 0x(1c) at (0x7fffffffece0) -- Size = (4) 

-- ISN: (85106) : L from (0x7fffffffece0) -- of Size = (4) 

-- ISN: (85112) : L from (0x7fffffffece0) -- of Size = (4) 

-- ISN: (85113) : L from (0x7fffffffece0) -- of Size = (4) 

-- ISN: (85119) : L from (0x7fffffffece0) -- of Size = (4) 

-- ISN: (85118) : S -> 0x(1c) at (0x6bc4b0) -- Size = (4) 

-- ISN: (85122) : S -> 0x(1d) at (0x7fffffffece0) -- Size = (4) 

-- ISN: (85123) : L from (0x7fffffffece0) -- of Size = (4) 

-- ISN: (85129) : L from (0x7fffffffece0) -- of Size = (4) 

-- ISN: (85130) : L from (0x7fffffffece0) -- of Size = (4) 

-- ISN: (85136) : L from (0x7fffffffece0) -- of Size = (4) 

-- ISN: (85135) : S -> 0x(1d) at (0x6bc4b4) -- Size = (4) 

-- ISN: (85139) : S -> 0x(1e) at (0x7fffffffece0) -- Size = (4) 

-- ISN: (85140) : L from (0x7fffffffece0) -- of Size = (4) 

-- ISN: (85146) : L from (0x7fffffffece0) -- of Size = (4) 

-- ISN: (85147) : L from (0x7fffffffece0) -- of Size = (4) 

-- ISN: (85153) : L from (0x7fffffffece0) -- of Size = (4) 

-- ISN: (85152) : S -> 0x(1e) at (0x6bc4b8) -- Size = (4) 

-- ISN: (85156) : S -> 0x(1f) at (0x7fffffffece0) -- Size = (4) 

-- ISN: (85157) : L from (0x7fffffffece0) -- of Size = (4) 

-- ISN: (85163) : L from (0x7fffffffece0) -- of Size = (4) 

-- ISN: (85164) : L from (0x7fffffffece0) -- of Size = (4) 

-- ISN: (85170) : L from (0x7fffffffece0) -- of Size = (4) 

-- ISN: (85169) : S -> 0x(1f) at (0x6bc4bc) -- Size = (4) 

-- ISN: (85173) : S -> 0x(20) at (0x7fffffffece0) -- Size = (4) 

-- ISN: (85174) : L from (0x7fffffffece0) -- of Size = (4) 

-- ISN: (85180) : L from (0x7fffffffece0) -- of Size = (4) 

-- ISN: (85181) : L from (0x7fffffffece0) -- of Size = (4) 

-- ISN: (85187) : L from (0x7fffffffece0) -- of Size = (4) 

-- ISN: (85186) : S -> 0x(20) at (0x6bc4c0) -- Size = (4) 

-- ISN: (85190) : S -> 0x(21) at (0x7fffffffece0) -- Size = (4) 

-- ISN: (85191) : L from (0x7fffffffece0) -- of Size = (4) 

-- ISN: (85197) : L from (0x7fffffffece0) -- of Size = (4) 

-- ISN: (85198) : L from (0x7fffffffece0) -- of Size = (4) 

-- ISN: (85204) : L from (0x7fffffffece0) -- of Size = (4) 

-- ISN: (85203) : S -> 0x(21) at (0x6bc4c4) -- Size = (4) 

-- ISN: (85221) : L from (0x7fffffffece0) -- of Size = (4) 

-- ISN: (85207) : S -> 0x(22) at (0x7fffffffece0) -- Size = (4) 

-- ISN: (85208) : L from (0x7fffffffece0) -- of Size = (4) 

-- ISN: (85214) : L from (0x7fffffffece0) -- of Size = (4) 

-- ISN: (85215) : L from (0x7fffffffece0) -- of Size = (4) 

-- Sqsh -> ISN (85220)

-- ISN: (85220) : S -> 0x(22) at (0x6bc4c8) -- Size = (4) 

-- ISN: (85265) : L from (0x7fffffffece0) -- of Size = (4) 

-- ISN: (85268) : S -> 0x(23) at (0x7fffffffece0) -- Size = (4) 

-- ISN: (85269) : L from (0x7fffffffece0) -- of Size = (4) 

-- ISN: (85275) : L from (0x7fffffffece0) -- of Size = (4) 

-- ISN: (85276) : L from (0x7fffffffece0) -- of Size = (4) 

-- ISN: (85281) : S -> 0x(23) at (0x6bc4cc) -- Size = (4) 

-- ISN: (85282) : L from (0x7fffffffece0) -- of Size = (4) 

-- ISN: (85285) : S -> 0x(24) at (0x7fffffffece0) -- Size = (4) 

-- ISN: (85286) : L from (0x7fffffffece0) -- of Size = (4) 

-- ISN: (85292) : L from (0x7fffffffece0) -- of Size = (4) 

-- ISN: (85293) : L from (0x7fffffffece0) -- of Size = (4) 

-- ISN: (85298) : S -> 0x(24) at (0x6bc4d0) -- Size = (4) 

-- ISN: (85299) : L from (0x7fffffffece0) -- of Size = (4) 

-- ISN: (85302) : S -> 0x(25) at (0x7fffffffece0) -- Size = (4) 

-- ISN: (85303) : L from (0x7fffffffece0) -- of Size = (4) 

-- ISN: (85309) : L from (0x7fffffffece0) -- of Size = (4) 

-- ISN: (85310) : L from (0x7fffffffece0) -- of Size = (4) 

-- ISN: (85315) : S -> 0x(25) at (0x6bc4d4) -- Size = (4) 

-- ISN: (85316) : L from (0x7fffffffece0) -- of Size = (4) 

-- ISN: (85319) : S -> 0x(26) at (0x7fffffffece0) -- Size = (4) 

-- ISN: (85320) : L from (0x7fffffffece0) -- of Size = (4) 

-- ISN: (85326) : L from (0x7fffffffece0) -- of Size = (4) 

-- ISN: (85327) : L from (0x7fffffffece0) -- of Size = (4) 

-- ISN: (85332) : S -> 0x(26) at (0x6bc4d8) -- Size = (4) 

-- ISN: (85333) : L from (0x7fffffffece0) -- of Size = (4) 

-- ISN: (85336) : S -> 0x(27) at (0x7fffffffece0) -- Size = (4) 

-- ISN: (85337) : L from (0x7fffffffece0) -- of Size = (4) 

-- ISN: (85343) : L from (0x7fffffffece0) -- of Size = (4) 

-- ISN: (85344) : L from (0x7fffffffece0) -- of Size = (4) 

-- ISN: (85349) : S -> 0x(27) at (0x6bc4dc) -- Size = (4) 

-- ISN: (85350) : L from (0x7fffffffece0) -- of Size = (4) 

-- ISN: (85353) : S -> 0x(28) at (0x7fffffffece0) -- Size = (4) 

-- ISN: (85354) : L from (0x7fffffffece0) -- of Size = (4) 

-- ISN: (85360) : L from (0x7fffffffece0) -- of Size = (4) 

-- ISN: (85361) : L from (0x7fffffffece0) -- of Size = (4) 

-- ISN: (85366) : S -> 0x(28) at (0x6bc4e0) -- Size = (4) 

-- ISN: (85367) : L from (0x7fffffffece0) -- of Size = (4) 

-- ISN: (85370) : S -> 0x(29) at (0x7fffffffece0) -- Size = (4) 

-- ISN: (85371) : L from (0x7fffffffece0) -- of Size = (4) 

-- ISN: (85377) : L from (0x7fffffffece0) -- of Size = (4) 

-- ISN: (85378) : L from (0x7fffffffece0) -- of Size = (4) 

-- ISN: (85383) : S -> 0x(29) at (0x6bc4e4) -- Size = (4) 

-- ISN: (85384) : L from (0x7fffffffece0) -- of Size = (4) 

-- ISN: (85387) : S -> 0x(2a) at (0x7fffffffece0) -- Size = (4) 

-- ISN: (85388) : L from (0x7fffffffece0) -- of Size = (4) 

-- ISN: (85394) : L from (0x7fffffffece0) -- of Size = (4) 

-- ISN: (85395) : L from (0x7fffffffece0) -- of Size = (4) 

-- ISN: (85400) : S -> 0x(2a) at (0x6bc4e8) -- Size = (4) 

-- ISN: (85401) : L from (0x7fffffffece0) -- of Size = (4) 

-- ISN: (85404) : S -> 0x(2b) at (0x7fffffffece0) -- Size = (4) 

-- ISN: (85405) : L from (0x7fffffffece0) -- of Size = (4) 

-- ISN: (85411) : L from (0x7fffffffece0) -- of Size = (4) 

-- ISN: (85412) : L from (0x7fffffffece0) -- of Size = (4) 

-- ISN: (85417) : S -> 0x(2b) at (0x6bc4ec) -- Size = (4) 

-- ISN: (85418) : L from (0x7fffffffece0) -- of Size = (4) 

-- ISN: (85421) : S -> 0x(2c) at (0x7fffffffece0) -- Size = (4) 

-- ISN: (85422) : L from (0x7fffffffece0) -- of Size = (4) 

-- ISN: (85428) : L from (0x7fffffffece0) -- of Size = (4) 

-- ISN: (85429) : L from (0x7fffffffece0) -- of Size = (4) 

-- ISN: (85434) : S -> 0x(2c) at (0x6bc4f0) -- Size = (4) 

-- ISN: (85435) : L from (0x7fffffffece0) -- of Size = (4) 

-- ISN: (85438) : S -> 0x(2d) at (0x7fffffffece0) -- Size = (4) 

-- ISN: (85439) : L from (0x7fffffffece0) -- of Size = (4) 

-- ISN: (85445) : L from (0x7fffffffece0) -- of Size = (4) 

-- ISN: (85446) : L from (0x7fffffffece0) -- of Size = (4) 

-- ISN: (85451) : S -> 0x(2d) at (0x6bc4f4) -- Size = (4) 

-- ISN: (85452) : L from (0x7fffffffece0) -- of Size = (4) 

-- ISN: (85455) : S -> 0x(2e) at (0x7fffffffece0) -- Size = (4) 

-- ISN: (85456) : L from (0x7fffffffece0) -- of Size = (4) 

-- ISN: (85462) : L from (0x7fffffffece0) -- of Size = (4) 

-- ISN: (85463) : L from (0x7fffffffece0) -- of Size = (4) 

-- ISN: (85468) : S -> 0x(2e) at (0x6bc4f8) -- Size = (4) 

-- ISN: (85469) : L from (0x7fffffffece0) -- of Size = (4) 

-- ISN: (85472) : S -> 0x(2f) at (0x7fffffffece0) -- Size = (4) 

-- ISN: (85473) : L from (0x7fffffffece0) -- of Size = (4) 

-- ISN: (85479) : L from (0x7fffffffece0) -- of Size = (4) 

-- ISN: (85480) : L from (0x7fffffffece0) -- of Size = (4) 

-- ISN: (85485) : S -> 0x(2f) at (0x6bc4fc) -- Size = (4) 

-- ISN: (85486) : L from (0x7fffffffece0) -- of Size = (4) 

-- ISN: (85489) : S -> 0x(30) at (0x7fffffffece0) -- Size = (4) 

-- ISN: (85490) : L from (0x7fffffffece0) -- of Size = (4) 

-- ISN: (85496) : L from (0x7fffffffece0) -- of Size = (4) 

-- ISN: (85497) : L from (0x7fffffffece0) -- of Size = (4) 

-- ISN: (85502) : S -> 0x(30) at (0x6bc500) -- Size = (4) 

-- ISN: (85503) : L from (0x7fffffffece0) -- of Size = (4) 

-- ISN: (85506) : S -> 0x(31) at (0x7fffffffece0) -- Size = (4) 

-- ISN: (85507) : L from (0x7fffffffece0) -- of Size = (4) 

-- ISN: (85513) : L from (0x7fffffffece0) -- of Size = (4) 

-- ISN: (85514) : L from (0x7fffffffece0) -- of Size = (4) 

-- ISN: (85519) : S -> 0x(31) at (0x6bc504) -- Size = (4) 

-- ISN: (85520) : L from (0x7fffffffece0) -- of Size = (4) 

-- ISN: (85523) : S -> 0x(32) at (0x7fffffffece0) -- Size = (4) 

-- ISN: (85524) : L from (0x7fffffffece0) -- of Size = (4) 

-- ISN: (85530) : L from (0x7fffffffece0) -- of Size = (4) 

-- ISN: (85531) : L from (0x7fffffffece0) -- of Size = (4) 

-- ISN: (85536) : S -> 0x(32) at (0x6bc508) -- Size = (4) 

-- ISN: (85537) : L from (0x7fffffffece0) -- of Size = (4) 

-- ISN: (85540) : S -> 0x(33) at (0x7fffffffece0) -- Size = (4) 

-- ISN: (85541) : L from (0x7fffffffece0) -- of Size = (4) 

-- ISN: (85547) : L from (0x7fffffffece0) -- of Size = (4) 

-- ISN: (85548) : L from (0x7fffffffece0) -- of Size = (4) 

-- ISN: (85553) : S -> 0x(33) at (0x6bc50c) -- Size = (4) 

-- ISN: (85554) : L from (0x7fffffffece0) -- of Size = (4) 

-- ISN: (85557) : S -> 0x(34) at (0x7fffffffece0) -- Size = (4) 

-- ISN: (85558) : L from (0x7fffffffece0) -- of Size = (4) 

-- ISN: (85564) : L from (0x7fffffffece0) -- of Size = (4) 

-- ISN: (85565) : L from (0x7fffffffece0) -- of Size = (4) 

-- ISN: (85570) : S -> 0x(34) at (0x6bc510) -- Size = (4) 

-- ISN: (85571) : L from (0x7fffffffece0) -- of Size = (4) 

-- ISN: (85574) : S -> 0x(35) at (0x7fffffffece0) -- Size = (4) 

-- ISN: (85575) : L from (0x7fffffffece0) -- of Size = (4) 

-- ISN: (85581) : L from (0x7fffffffece0) -- of Size = (4) 

-- ISN: (85582) : L from (0x7fffffffece0) -- of Size = (4) 

-- ISN: (85587) : S -> 0x(35) at (0x6bc514) -- Size = (4) 

-- ISN: (85588) : L from (0x7fffffffece0) -- of Size = (4) 

-- ISN: (85591) : S -> 0x(36) at (0x7fffffffece0) -- Size = (4) 

-- ISN: (85592) : L from (0x7fffffffece0) -- of Size = (4) 

-- ISN: (85598) : L from (0x7fffffffece0) -- of Size = (4) 

-- ISN: (85599) : L from (0x7fffffffece0) -- of Size = (4) 

-- ISN: (85604) : S -> 0x(36) at (0x6bc518) -- Size = (4) 

-- ISN: (85605) : L from (0x7fffffffece0) -- of Size = (4) 

-- ISN: (85608) : S -> 0x(37) at (0x7fffffffece0) -- Size = (4) 

-- ISN: (85609) : L from (0x7fffffffece0) -- of Size = (4) 

-- ISN: (85615) : L from (0x7fffffffece0) -- of Size = (4) 

-- ISN: (85616) : L from (0x7fffffffece0) -- of Size = (4) 

-- ISN: (85621) : S -> 0x(37) at (0x6bc51c) -- Size = (4) 

-- ISN: (85622) : L from (0x7fffffffece0) -- of Size = (4) 

-- ISN: (85625) : S -> 0x(38) at (0x7fffffffece0) -- Size = (4) 

-- ISN: (85626) : L from (0x7fffffffece0) -- of Size = (4) 

-- ISN: (85632) : L from (0x7fffffffece0) -- of Size = (4) 

-- ISN: (85633) : L from (0x7fffffffece0) -- of Size = (4) 

-- ISN: (85638) : S -> 0x(38) at (0x6bc520) -- Size = (4) 

-- ISN: (85639) : L from (0x7fffffffece0) -- of Size = (4) 

-- ISN: (85642) : S -> 0x(39) at (0x7fffffffece0) -- Size = (4) 

-- ISN: (85643) : L from (0x7fffffffece0) -- of Size = (4) 

-- ISN: (85649) : L from (0x7fffffffece0) -- of Size = (4) 

-- ISN: (85650) : L from (0x7fffffffece0) -- of Size = (4) 

-- ISN: (85655) : S -> 0x(39) at (0x6bc524) -- Size = (4) 

-- ISN: (85656) : L from (0x7fffffffece0) -- of Size = (4) 

-- ISN: (85659) : S -> 0x(3a) at (0x7fffffffece0) -- Size = (4) 

-- ISN: (85660) : L from (0x7fffffffece0) -- of Size = (4) 

-- ISN: (85666) : L from (0x7fffffffece0) -- of Size = (4) 

-- ISN: (85667) : L from (0x7fffffffece0) -- of Size = (4) 

-- ISN: (85672) : S -> 0x(3a) at (0x6bc528) -- Size = (4) 

-- ISN: (85673) : L from (0x7fffffffece0) -- of Size = (4) 

-- ISN: (85676) : S -> 0x(3b) at (0x7fffffffece0) -- Size = (4) 

-- ISN: (85677) : L from (0x7fffffffece0) -- of Size = (4) 

-- ISN: (85683) : L from (0x7fffffffece0) -- of Size = (4) 

-- ISN: (85684) : L from (0x7fffffffece0) -- of Size = (4) 

-- ISN: (85689) : S -> 0x(3b) at (0x6bc52c) -- Size = (4) 

-- ISN: (85690) : L from (0x7fffffffece0) -- of Size = (4) 

-- ISN: (85693) : S -> 0x(3c) at (0x7fffffffece0) -- Size = (4) 

-- ISN: (85694) : L from (0x7fffffffece0) -- of Size = (4) 

-- ISN: (85700) : L from (0x7fffffffece0) -- of Size = (4) 

-- ISN: (85701) : L from (0x7fffffffece0) -- of Size = (4) 

-- ISN: (85706) : S -> 0x(3c) at (0x6bc530) -- Size = (4) 

-- ISN: (85707) : L from (0x7fffffffece0) -- of Size = (4) 

-- ISN: (85710) : S -> 0x(3d) at (0x7fffffffece0) -- Size = (4) 

-- ISN: (85711) : L from (0x7fffffffece0) -- of Size = (4) 

-- ISN: (85717) : L from (0x7fffffffece0) -- of Size = (4) 

-- ISN: (85718) : L from (0x7fffffffece0) -- of Size = (4) 

-- ISN: (85723) : S -> 0x(3d) at (0x6bc534) -- Size = (4) 

-- ISN: (85724) : L from (0x7fffffffece0) -- of Size = (4) 

-- ISN: (85727) : S -> 0x(3e) at (0x7fffffffece0) -- Size = (4) 

-- ISN: (85728) : L from (0x7fffffffece0) -- of Size = (4) 

-- ISN: (85734) : L from (0x7fffffffece0) -- of Size = (4) 

-- ISN: (85735) : L from (0x7fffffffece0) -- of Size = (4) 

-- ISN: (85740) : S -> 0x(3e) at (0x6bc538) -- Size = (4) 

-- ISN: (85741) : L from (0x7fffffffece0) -- of Size = (4) 

-- ISN: (85744) : S -> 0x(3f) at (0x7fffffffece0) -- Size = (4) 

-- ISN: (85745) : L from (0x7fffffffece0) -- of Size = (4) 

-- ISN: (85751) : L from (0x7fffffffece0) -- of Size = (4) 

-- ISN: (85752) : L from (0x7fffffffece0) -- of Size = (4) 

-- ISN: (85757) : S -> 0x(3f) at (0x6bc53c) -- Size = (4) 

-- ISN: (85758) : L from (0x7fffffffece0) -- of Size = (4) 

-- ISN: (85761) : S -> 0x(40) at (0x7fffffffece0) -- Size = (4) 

-- ISN: (85762) : L from (0x7fffffffece0) -- of Size = (4) 

-- ISN: (85768) : L from (0x7fffffffece0) -- of Size = (4) 

-- ISN: (85769) : L from (0x7fffffffece0) -- of Size = (4) 

-- ISN: (85774) : S -> 0x(40) at (0x6bc540) -- Size = (4) 

-- ISN: (85775) : L from (0x7fffffffece0) -- of Size = (4) 

-- ISN: (85778) : S -> 0x(41) at (0x7fffffffece0) -- Size = (4) 

-- ISN: (85779) : L from (0x7fffffffece0) -- of Size = (4) 

-- ISN: (85785) : L from (0x7fffffffece0) -- of Size = (4) 

-- ISN: (85786) : L from (0x7fffffffece0) -- of Size = (4) 

-- ISN: (85791) : S -> 0x(41) at (0x6bc544) -- Size = (4) 

-- ISN: (85792) : L from (0x7fffffffece0) -- of Size = (4) 

-- ISN: (85795) : S -> 0x(42) at (0x7fffffffece0) -- Size = (4) 

-- ISN: (85796) : L from (0x7fffffffece0) -- of Size = (4) 

-- ISN: (85802) : L from (0x7fffffffece0) -- of Size = (4) 

-- ISN: (85803) : L from (0x7fffffffece0) -- of Size = (4) 

-- ISN: (85808) : S -> 0x(42) at (0x6bc548) -- Size = (4) 

-- ISN: (85809) : L from (0x7fffffffece0) -- of Size = (4) 

-- ISN: (85812) : S -> 0x(43) at (0x7fffffffece0) -- Size = (4) 

-- ISN: (85813) : L from (0x7fffffffece0) -- of Size = (4) 

-- ISN: (85819) : L from (0x7fffffffece0) -- of Size = (4) 

-- ISN: (85820) : L from (0x7fffffffece0) -- of Size = (4) 

-- ISN: (85825) : S -> 0x(43) at (0x6bc54c) -- Size = (4) 

-- ISN: (85826) : L from (0x7fffffffece0) -- of Size = (4) 

-- ISN: (85829) : S -> 0x(44) at (0x7fffffffece0) -- Size = (4) 

-- ISN: (85830) : L from (0x7fffffffece0) -- of Size = (4) 

-- ISN: (85836) : L from (0x7fffffffece0) -- of Size = (4) 

-- ISN: (85837) : L from (0x7fffffffece0) -- of Size = (4) 

-- ISN: (85842) : S -> 0x(44) at (0x6bc550) -- Size = (4) 

-- ISN: (85843) : L from (0x7fffffffece0) -- of Size = (4) 

-- ISN: (85846) : S -> 0x(45) at (0x7fffffffece0) -- Size = (4) 

-- ISN: (85847) : L from (0x7fffffffece0) -- of Size = (4) 

-- ISN: (85853) : L from (0x7fffffffece0) -- of Size = (4) 

-- ISN: (85854) : L from (0x7fffffffece0) -- of Size = (4) 

-- ISN: (85859) : S -> 0x(45) at (0x6bc554) -- Size = (4) 

-- ISN: (85860) : L from (0x7fffffffece0) -- of Size = (4) 

-- ISN: (85863) : S -> 0x(46) at (0x7fffffffece0) -- Size = (4) 

-- ISN: (85864) : L from (0x7fffffffece0) -- of Size = (4) 

-- ISN: (85870) : L from (0x7fffffffece0) -- of Size = (4) 

-- ISN: (85871) : L from (0x7fffffffece0) -- of Size = (4) 

-- ISN: (85876) : S -> 0x(46) at (0x6bc558) -- Size = (4) 

-- ISN: (85877) : L from (0x7fffffffece0) -- of Size = (4) 

-- ISN: (85880) : S -> 0x(47) at (0x7fffffffece0) -- Size = (4) 

-- ISN: (85881) : L from (0x7fffffffece0) -- of Size = (4) 

-- ISN: (85887) : L from (0x7fffffffece0) -- of Size = (4) 

-- ISN: (85888) : L from (0x7fffffffece0) -- of Size = (4) 

-- ISN: (85893) : S -> 0x(47) at (0x6bc55c) -- Size = (4) 

-- ISN: (85894) : L from (0x7fffffffece0) -- of Size = (4) 

-- ISN: (85897) : S -> 0x(48) at (0x7fffffffece0) -- Size = (4) 

-- ISN: (85898) : L from (0x7fffffffece0) -- of Size = (4) 

-- ISN: (85904) : L from (0x7fffffffece0) -- of Size = (4) 

-- ISN: (85905) : L from (0x7fffffffece0) -- of Size = (4) 

-- ISN: (85910) : S -> 0x(48) at (0x6bc560) -- Size = (4) 

-- ISN: (85911) : L from (0x7fffffffece0) -- of Size = (4) 

-- ISN: (85914) : S -> 0x(49) at (0x7fffffffece0) -- Size = (4) 

-- ISN: (85915) : L from (0x7fffffffece0) -- of Size = (4) 

-- ISN: (85921) : L from (0x7fffffffece0) -- of Size = (4) 

-- ISN: (85922) : L from (0x7fffffffece0) -- of Size = (4) 

-- ISN: (85927) : S -> 0x(49) at (0x6bc564) -- Size = (4) 

-- ISN: (85928) : L from (0x7fffffffece0) -- of Size = (4) 

-- ISN: (85931) : S -> 0x(4a) at (0x7fffffffece0) -- Size = (4) 

-- ISN: (85932) : L from (0x7fffffffece0) -- of Size = (4) 

-- ISN: (85938) : L from (0x7fffffffece0) -- of Size = (4) 

-- ISN: (85939) : L from (0x7fffffffece0) -- of Size = (4) 

-- ISN: (85944) : S -> 0x(4a) at (0x6bc568) -- Size = (4) 

-- ISN: (85945) : L from (0x7fffffffece0) -- of Size = (4) 

-- ISN: (85948) : S -> 0x(4b) at (0x7fffffffece0) -- Size = (4) 

-- ISN: (85949) : L from (0x7fffffffece0) -- of Size = (4) 

-- ISN: (85955) : L from (0x7fffffffece0) -- of Size = (4) 

-- ISN: (85956) : L from (0x7fffffffece0) -- of Size = (4) 

-- ISN: (85961) : S -> 0x(4b) at (0x6bc56c) -- Size = (4) 

-- ISN: (85962) : L from (0x7fffffffece0) -- of Size = (4) 

-- ISN: (85965) : S -> 0x(4c) at (0x7fffffffece0) -- Size = (4) 

-- ISN: (85966) : L from (0x7fffffffece0) -- of Size = (4) 

-- ISN: (85972) : L from (0x7fffffffece0) -- of Size = (4) 

-- ISN: (85973) : L from (0x7fffffffece0) -- of Size = (4) 

-- ISN: (85978) : S -> 0x(4c) at (0x6bc570) -- Size = (4) 

-- ISN: (85979) : L from (0x7fffffffece0) -- of Size = (4) 

-- ISN: (85982) : S -> 0x(4d) at (0x7fffffffece0) -- Size = (4) 

-- ISN: (85983) : L from (0x7fffffffece0) -- of Size = (4) 

-- ISN: (85989) : L from (0x7fffffffece0) -- of Size = (4) 

-- ISN: (85990) : L from (0x7fffffffece0) -- of Size = (4) 

-- ISN: (85995) : S -> 0x(4d) at (0x6bc574) -- Size = (4) 

-- ISN: (85996) : L from (0x7fffffffece0) -- of Size = (4) 

-- ISN: (85999) : S -> 0x(4e) at (0x7fffffffece0) -- Size = (4) 

-- ISN: (86000) : L from (0x7fffffffece0) -- of Size = (4) 

-- ISN: (86006) : L from (0x7fffffffece0) -- of Size = (4) 

-- ISN: (86007) : L from (0x7fffffffece0) -- of Size = (4) 

-- ISN: (86012) : S -> 0x(4e) at (0x6bc578) -- Size = (4) 

-- ISN: (86013) : L from (0x7fffffffece0) -- of Size = (4) 

-- ISN: (86016) : S -> 0x(4f) at (0x7fffffffece0) -- Size = (4) 

-- ISN: (86017) : L from (0x7fffffffece0) -- of Size = (4) 

-- ISN: (86023) : L from (0x7fffffffece0) -- of Size = (4) 

-- ISN: (86024) : L from (0x7fffffffece0) -- of Size = (4) 

-- ISN: (86029) : S -> 0x(4f) at (0x6bc57c) -- Size = (4) 

-- ISN: (86030) : L from (0x7fffffffece0) -- of Size = (4) 

-- ISN: (86033) : S -> 0x(50) at (0x7fffffffece0) -- Size = (4) 

-- ISN: (86034) : L from (0x7fffffffece0) -- of Size = (4) 

-- ISN: (86040) : L from (0x7fffffffece0) -- of Size = (4) 

-- ISN: (86041) : L from (0x7fffffffece0) -- of Size = (4) 

-- ISN: (86046) : S -> 0x(50) at (0x6bc580) -- Size = (4) 

-- ISN: (86047) : L from (0x7fffffffece0) -- of Size = (4) 

-- ISN: (86050) : S -> 0x(51) at (0x7fffffffece0) -- Size = (4) 

-- ISN: (86051) : L from (0x7fffffffece0) -- of Size = (4) 

-- ISN: (86057) : L from (0x7fffffffece0) -- of Size = (4) 

-- ISN: (86058) : L from (0x7fffffffece0) -- of Size = (4) 

-- ISN: (86063) : S -> 0x(51) at (0x6bc584) -- Size = (4) 

-- ISN: (86064) : L from (0x7fffffffece0) -- of Size = (4) 

-- ISN: (86067) : S -> 0x(52) at (0x7fffffffece0) -- Size = (4) 

-- ISN: (86068) : L from (0x7fffffffece0) -- of Size = (4) 

-- ISN: (86074) : L from (0x7fffffffece0) -- of Size = (4) 

-- ISN: (86075) : L from (0x7fffffffece0) -- of Size = (4) 

-- ISN: (86080) : S -> 0x(52) at (0x6bc588) -- Size = (4) 

-- ISN: (86081) : L from (0x7fffffffece0) -- of Size = (4) 

-- ISN: (86084) : S -> 0x(53) at (0x7fffffffece0) -- Size = (4) 

-- ISN: (86085) : L from (0x7fffffffece0) -- of Size = (4) 

-- ISN: (86091) : L from (0x7fffffffece0) -- of Size = (4) 

-- ISN: (86092) : L from (0x7fffffffece0) -- of Size = (4) 

-- ISN: (86097) : S -> 0x(53) at (0x6bc58c) -- Size = (4) 

-- ISN: (86098) : L from (0x7fffffffece0) -- of Size = (4) 

-- ISN: (86101) : S -> 0x(54) at (0x7fffffffece0) -- Size = (4) 

-- ISN: (86102) : L from (0x7fffffffece0) -- of Size = (4) 

-- ISN: (86108) : L from (0x7fffffffece0) -- of Size = (4) 

-- ISN: (86109) : L from (0x7fffffffece0) -- of Size = (4) 

-- ISN: (86114) : S -> 0x(54) at (0x6bc590) -- Size = (4) 

-- ISN: (86115) : L from (0x7fffffffece0) -- of Size = (4) 

-- ISN: (86118) : S -> 0x(55) at (0x7fffffffece0) -- Size = (4) 

-- ISN: (86119) : L from (0x7fffffffece0) -- of Size = (4) 

-- ISN: (86125) : L from (0x7fffffffece0) -- of Size = (4) 

-- ISN: (86126) : L from (0x7fffffffece0) -- of Size = (4) 

-- ISN: (86131) : S -> 0x(55) at (0x6bc594) -- Size = (4) 

-- ISN: (86132) : L from (0x7fffffffece0) -- of Size = (4) 

-- ISN: (86135) : S -> 0x(56) at (0x7fffffffece0) -- Size = (4) 

-- ISN: (86136) : L from (0x7fffffffece0) -- of Size = (4) 

-- ISN: (86142) : L from (0x7fffffffece0) -- of Size = (4) 

-- ISN: (86143) : L from (0x7fffffffece0) -- of Size = (4) 

-- ISN: (86148) : S -> 0x(56) at (0x6bc598) -- Size = (4) 

-- ISN: (86149) : L from (0x7fffffffece0) -- of Size = (4) 

-- ISN: (86152) : S -> 0x(57) at (0x7fffffffece0) -- Size = (4) 

-- ISN: (86153) : L from (0x7fffffffece0) -- of Size = (4) 

-- ISN: (86159) : L from (0x7fffffffece0) -- of Size = (4) 

-- ISN: (86160) : L from (0x7fffffffece0) -- of Size = (4) 

-- ISN: (86165) : S -> 0x(57) at (0x6bc59c) -- Size = (4) 

-- ISN: (86166) : L from (0x7fffffffece0) -- of Size = (4) 

-- ISN: (86169) : S -> 0x(58) at (0x7fffffffece0) -- Size = (4) 

-- ISN: (86170) : L from (0x7fffffffece0) -- of Size = (4) 

-- ISN: (86176) : L from (0x7fffffffece0) -- of Size = (4) 

-- ISN: (86177) : L from (0x7fffffffece0) -- of Size = (4) 

-- ISN: (86182) : S -> 0x(58) at (0x6bc5a0) -- Size = (4) 

-- ISN: (86183) : L from (0x7fffffffece0) -- of Size = (4) 

-- ISN: (86186) : S -> 0x(59) at (0x7fffffffece0) -- Size = (4) 

-- ISN: (86187) : L from (0x7fffffffece0) -- of Size = (4) 

-- ISN: (86193) : L from (0x7fffffffece0) -- of Size = (4) 

-- ISN: (86194) : L from (0x7fffffffece0) -- of Size = (4) 

-- ISN: (86199) : S -> 0x(59) at (0x6bc5a4) -- Size = (4) 

-- ISN: (86200) : L from (0x7fffffffece0) -- of Size = (4) 

-- ISN: (86203) : S -> 0x(5a) at (0x7fffffffece0) -- Size = (4) 

-- ISN: (86204) : L from (0x7fffffffece0) -- of Size = (4) 

-- ISN: (86210) : L from (0x7fffffffece0) -- of Size = (4) 

-- ISN: (86211) : L from (0x7fffffffece0) -- of Size = (4) 

-- ISN: (86216) : S -> 0x(5a) at (0x6bc5a8) -- Size = (4) 

-- ISN: (86217) : L from (0x7fffffffece0) -- of Size = (4) 

-- ISN: (86220) : S -> 0x(5b) at (0x7fffffffece0) -- Size = (4) 

-- ISN: (86221) : L from (0x7fffffffece0) -- of Size = (4) 

-- ISN: (86227) : L from (0x7fffffffece0) -- of Size = (4) 

-- ISN: (86228) : L from (0x7fffffffece0) -- of Size = (4) 

-- ISN: (86233) : S -> 0x(5b) at (0x6bc5ac) -- Size = (4) 

-- ISN: (86234) : L from (0x7fffffffece0) -- of Size = (4) 

-- ISN: (86237) : S -> 0x(5c) at (0x7fffffffece0) -- Size = (4) 

-- ISN: (86238) : L from (0x7fffffffece0) -- of Size = (4) 

-- ISN: (86244) : L from (0x7fffffffece0) -- of Size = (4) 

-- ISN: (86245) : L from (0x7fffffffece0) -- of Size = (4) 

-- ISN: (86250) : S -> 0x(5c) at (0x6bc5b0) -- Size = (4) 

-- ISN: (86251) : L from (0x7fffffffece0) -- of Size = (4) 

-- ISN: (86254) : S -> 0x(5d) at (0x7fffffffece0) -- Size = (4) 

-- ISN: (86255) : L from (0x7fffffffece0) -- of Size = (4) 

-- ISN: (86261) : L from (0x7fffffffece0) -- of Size = (4) 

-- ISN: (86262) : L from (0x7fffffffece0) -- of Size = (4) 

-- ISN: (86267) : S -> 0x(5d) at (0x6bc5b4) -- Size = (4) 

-- ISN: (86268) : L from (0x7fffffffece0) -- of Size = (4) 

-- ISN: (86271) : S -> 0x(5e) at (0x7fffffffece0) -- Size = (4) 

-- ISN: (86272) : L from (0x7fffffffece0) -- of Size = (4) 

-- ISN: (86278) : L from (0x7fffffffece0) -- of Size = (4) 

-- ISN: (86279) : L from (0x7fffffffece0) -- of Size = (4) 

-- ISN: (86284) : S -> 0x(5e) at (0x6bc5b8) -- Size = (4) 

-- ISN: (86285) : L from (0x7fffffffece0) -- of Size = (4) 

-- ISN: (86288) : S -> 0x(5f) at (0x7fffffffece0) -- Size = (4) 

-- ISN: (86289) : L from (0x7fffffffece0) -- of Size = (4) 

-- ISN: (86295) : L from (0x7fffffffece0) -- of Size = (4) 

-- ISN: (86296) : L from (0x7fffffffece0) -- of Size = (4) 

-- ISN: (86301) : S -> 0x(5f) at (0x6bc5bc) -- Size = (4) 

-- ISN: (86302) : L from (0x7fffffffece0) -- of Size = (4) 

-- ISN: (86305) : S -> 0x(60) at (0x7fffffffece0) -- Size = (4) 

-- ISN: (86306) : L from (0x7fffffffece0) -- of Size = (4) 

-- ISN: (86312) : L from (0x7fffffffece0) -- of Size = (4) 

-- ISN: (86313) : L from (0x7fffffffece0) -- of Size = (4) 

-- ISN: (86318) : S -> 0x(60) at (0x6bc5c0) -- Size = (4) 

-- ISN: (86319) : L from (0x7fffffffece0) -- of Size = (4) 

-- ISN: (86322) : S -> 0x(61) at (0x7fffffffece0) -- Size = (4) 

-- ISN: (86323) : L from (0x7fffffffece0) -- of Size = (4) 

-- ISN: (86329) : L from (0x7fffffffece0) -- of Size = (4) 

-- ISN: (86330) : L from (0x7fffffffece0) -- of Size = (4) 

-- ISN: (86335) : S -> 0x(61) at (0x6bc5c4) -- Size = (4) 

-- ISN: (86336) : L from (0x7fffffffece0) -- of Size = (4) 

-- ISN: (86339) : S -> 0x(62) at (0x7fffffffece0) -- Size = (4) 

-- ISN: (86340) : L from (0x7fffffffece0) -- of Size = (4) 

-- ISN: (86346) : L from (0x7fffffffece0) -- of Size = (4) 

-- ISN: (86347) : L from (0x7fffffffece0) -- of Size = (4) 

-- ISN: (86352) : S -> 0x(62) at (0x6bc5c8) -- Size = (4) 

-- ISN: (86353) : L from (0x7fffffffece0) -- of Size = (4) 

-- ISN: (86356) : S -> 0x(63) at (0x7fffffffece0) -- Size = (4) 

-- ISN: (86357) : L from (0x7fffffffece0) -- of Size = (4) 

-- ISN: (86363) : L from (0x7fffffffece0) -- of Size = (4) 

-- ISN: (86364) : L from (0x7fffffffece0) -- of Size = (4) 

-- ISN: (86369) : S -> 0x(63) at (0x6bc5cc) -- Size = (4) 

-- ISN: (86370) : L from (0x7fffffffece0) -- of Size = (4) 

-- ISN: (86373) : S -> 0x(64) at (0x7fffffffece0) -- Size = (4) 

-- ISN: (86374) : L from (0x7fffffffece0) -- of Size = (4) 

-- ISN: (86380) : L from (0x7fffffffece0) -- of Size = (4) 

-- ISN: (86381) : L from (0x7fffffffece0) -- of Size = (4) 

-- ISN: (86386) : S -> 0x(64) at (0x6bc5d0) -- Size = (4) 

-- Sqsh -> ISN (86379)

-- ISN: (86487) : L from (0x7fffffffece4) -- of Size = (4) 

-- ISN: (86483) : S -> 0x(0) at (0x7fffffffece4) -- Size = (4) 

-- ISN: (86494) : L from (0x7fffffffece4) -- of Size = (4) 

-- Sqsh -> ISN (86486)

-- ISN: (86549) : L from (0x7fffffffece4) -- of Size = (4) 

-- ISN: (86558) : S -> 0x(92) at (0x7fffffffecd8) -- Size = (8) 

-- ISN: (86562) : S -> 0x(0) at (0x7fffffffece0) -- Size = (4) 

-- ISN: (86566) : L from (0x7fffffffece0) -- of Size = (4) 

-- ISN: (86570) : L from (0x7fffffffece0) -- of Size = (4) 

-- Sqsh -> ISN (86554)

-- ISN: (86608) : L from (0x7fffffffece4) -- of Size = (4) 

-- ISN: (86615) : L from (0x7fffffffece4) -- of Size = (4) 

-- ISN: (86612) : S -> 0x(77) at (0x7fffffffecd8) -- Size = (8) 

-- ISN: (86619) : L from (0x7fffffffece4) -- of Size = (4) 

-- Sqsh -> ISN (86614)

-- ISN: (86670) : S -> 0x(f0) at (0x7fffffffecd0) -- Size = (8) 

-- ISN: (86673) : S -> 0x(0) at (0x7fffffffeccc) -- Size = (4) 

-- ISN: (86675) : L from (0x7fffffffeccc) -- of Size = (4) 

-- ISN: (86684) : L from (0x7fffffffecd0) -- of Size = (8) 

-- ISN: (86682) : S -> 0x(aa) at (0x6bc424) -- Size = (4) 

-- ISN: (86687) : L from (0x7fffffffecd8) -- of Size = (8) 

-- ISN: (86690) : L from (0x7fffffffece4) -- of Size = (4) 

-- ISN: (86694) : L from (0x7fffffffece4) -- of Size = (4) 

-- ISN: (86703) : S -> 0x(92) at (0x7fffffffecd8) -- Size = (8) 

-- ISN: (86707) : S -> 0x(0) at (0x7fffffffece0) -- Size = (4) 

-- ISN: (86711) : L from (0x7fffffffece0) -- of Size = (4) 

-- ISN: (86693) : S -> 0x(1) at (0x7fffffffece4) -- Size = (4) 

-- ISN: (86715) : L from (0x7fffffffece0) -- of Size = (4) 

-- Sqsh -> ISN (86705)

-- Sqsh -> ISN (86693)

-- ISN: (86746) : L from (0x7fffffffece4) -- of Size = (4) 

-- ISN: (86755) : S -> 0x(92) at (0x7fffffffecd8) -- Size = (8) 

-- ISN: (86758) : S -> 0x(f0) at (0x7fffffffecd0) -- Size = (8) 

-- ISN: (86772) : L from (0x7fffffffecd0) -- of Size = (8) 

-- Sqsh -> ISN (86751)

-- ISN: (86817) : L from (0x7fffffffece4) -- of Size = (4) 

-- ISN: (86824) : L from (0x7fffffffece4) -- of Size = (4) 

-- ISN: (86821) : S -> 0x(77) at (0x7fffffffecd8) -- Size = (8) 

-- Sqsh -> ISN (86823)

-- ISN: (86879) : S -> 0x(f0) at (0x7fffffffecd0) -- Size = (8) 

-- ISN: (86882) : S -> 0x(1) at (0x7fffffffeccc) -- Size = (4) 

-- ISN: (86884) : L from (0x7fffffffeccc) -- of Size = (4) 

-- ISN: (86893) : L from (0x7fffffffecd0) -- of Size = (8) 

-- ISN: (86891) : S -> 0x(aa) at (0x6bc424) -- Size = (4) 

-- ISN: (86896) : L from (0x7fffffffecd8) -- of Size = (8) 

-- ISN: (86899) : L from (0x7fffffffece4) -- of Size = (4) 

-- ISN: (86912) : S -> 0x(92) at (0x7fffffffecd8) -- Size = (8) 

-- ISN: (86916) : S -> 0x(0) at (0x7fffffffece0) -- Size = (4) 

-- ISN: (86920) : L from (0x7fffffffece0) -- of Size = (4) 

-- ISN: (86924) : L from (0x7fffffffece0) -- of Size = (4) 

-- ISN: (86902) : S -> 0x(2) at (0x7fffffffece4) -- Size = (4) 

-- Sqsh -> ISN (86914)

-- ISN: (86903) : L from (0x7fffffffece4) -- of Size = (4) 

-- Sqsh -> ISN (86908)

-- ISN: (86971) : L from (0x7fffffffece4) -- of Size = (4) 

-- ISN: (86978) : L from (0x7fffffffece4) -- of Size = (4) 

-- ISN: (86975) : S -> 0x(77) at (0x7fffffffecd8) -- Size = (8) 

-- Sqsh -> ISN (86977)

-- ISN: (87025) : S -> 0x(f0) at (0x7fffffffecd0) -- Size = (8) 

-- ISN: (87028) : S -> 0x(2) at (0x7fffffffeccc) -- Size = (4) 

-- ISN: (87030) : L from (0x7fffffffeccc) -- of Size = (4) 

-- ISN: (87039) : L from (0x7fffffffecd0) -- of Size = (8) 

-- ISN: (87037) : S -> 0x(aa) at (0x6bc424) -- Size = (4) 

-- ISN: (87042) : L from (0x7fffffffecd8) -- of Size = (8) 

-- ISN: (87045) : L from (0x7fffffffece4) -- of Size = (4) 

-- ISN: (87048) : S -> 0x(3) at (0x7fffffffece4) -- Size = (4) 

-- ISN: (87059) : S -> 0x(77) at (0x7fffffffecd8) -- Size = (8) 

-- ISN: (87049) : L from (0x7fffffffece4) -- of Size = (4) 

-- ISN: (87055) : L from (0x7fffffffece4) -- of Size = (4) 

-- ISN: (87062) : S -> 0x(f0) at (0x7fffffffecd0) -- Size = (8) 

-- ISN: (87076) : L from (0x7fffffffecd0) -- of Size = (8) 

-- ISN: (87067) : L from (0x7fffffffeccc) -- of Size = (4) 

-- ISN: (87074) : S -> 0x(aa) at (0x6bc424) -- Size = (4) 

-- ISN: (87079) : L from (0x7fffffffecd8) -- of Size = (8) 

-- ISN: (87065) : S -> 0x(3) at (0x7fffffffeccc) -- Size = (4) 

-- ISN: (87082) : L from (0x7fffffffece4) -- of Size = (4) 

-- Sqsh -> ISN (87066)

-- ISN: (87099) : L from (0x7fffffffeccc) -- of Size = (4) 

-- ISN: (87106) : S -> 0x(aa) at (0x6bc424) -- Size = (4) 					Extra Store

-- ISN: (87108) : L from (0x7fffffffecd0) -- of Size = (8) 

-- ISN: (87111) : L from (0x7fffffffecd8) -- of Size = (8) 

-- ISN: (87114) : L from (0x7fffffffece4) -- of Size = (4) 

-- ISN: (87128) : S -> 0x(77) at (0x7fffffffecd8) -- Size = (8) 

-- ISN: (87117) : S -> 0x(4) at (0x7fffffffece4) -- Size = (4) 

-- ISN: (87131) : S -> 0x(f0) at (0x7fffffffecd0) -- Size = (8) 

-- ISN: (87118) : L from (0x7fffffffece4) -- of Size = (4) 

-- ISN: (87124) : L from (0x7fffffffece4) -- of Size = (4) 

-- ISN: (87145) : L from (0x7fffffffecd0) -- of Size = (8) 

-- ISN: (87143) : S -> 0x(aa) at (0x6bc424) -- Size = (4) 

-- ISN: (87148) : L from (0x7fffffffecd8) -- of Size = (8) 

-- ISN: (87134) : S -> 0x(4) at (0x7fffffffeccc) -- Size = (4) 

-- ISN: (87151) : L from (0x7fffffffece4) -- of Size = (4) 

-- ISN: (87136) : L from (0x7fffffffeccc) -- of Size = (4) 

-- ISN: (87154) : S -> 0x(5) at (0x7fffffffece4) -- Size = (4) 

-- ISN: (87155) : L from (0x7fffffffece4) -- of Size = (4) 

-- ISN: (87161) : L from (0x7fffffffece4) -- of Size = (4) 

-- ISN: (87165) : S -> 0x(77) at (0x7fffffffecd8) -- Size = (8) 

-- ISN: (87168) : S -> 0x(f0) at (0x7fffffffecd0) -- Size = (8) 

-- ISN: (87182) : L from (0x7fffffffecd0) -- of Size = (8) 

-- ISN: (87171) : S -> 0x(5) at (0x7fffffffeccc) -- Size = (4) 

-- ISN: (87180) : S -> 0x(aa) at (0x6bc424) -- Size = (4) 

-- ISN: (87173) : L from (0x7fffffffeccc) -- of Size = (4) 

-- ISN: (87185) : L from (0x7fffffffecd8) -- of Size = (8) 

-- ISN: (87188) : L from (0x7fffffffece4) -- of Size = (4) 

-- ISN: (87191) : S -> 0x(6) at (0x7fffffffece4) -- Size = (4) 

-- ISN: (87192) : L from (0x7fffffffece4) -- of Size = (4) 

-- ISN: (87198) : L from (0x7fffffffece4) -- of Size = (4) 

-- ISN: (87202) : S -> 0x(77) at (0x7fffffffecd8) -- Size = (8) 

-- ISN: (87205) : S -> 0x(f0) at (0x7fffffffecd0) -- Size = (8) 

-- ISN: (87219) : L from (0x7fffffffecd0) -- of Size = (8) 

-- ISN: (87208) : S -> 0x(6) at (0x7fffffffeccc) -- Size = (4) 

-- ISN: (87217) : S -> 0x(aa) at (0x6bc424) -- Size = (4) 

-- ISN: (87210) : L from (0x7fffffffeccc) -- of Size = (4) 

-- ISN: (87222) : L from (0x7fffffffecd8) -- of Size = (8) 

-- ISN: (87225) : L from (0x7fffffffece4) -- of Size = (4) 

-- ISN: (87228) : S -> 0x(7) at (0x7fffffffece4) -- Size = (4) 

-- ISN: (87229) : L from (0x7fffffffece4) -- of Size = (4) 

-- ISN: (87235) : L from (0x7fffffffece4) -- of Size = (4) 

-- ISN: (87239) : S -> 0x(77) at (0x7fffffffecd8) -- Size = (8) 

-- ISN: (87242) : S -> 0x(f0) at (0x7fffffffecd0) -- Size = (8) 

-- ISN: (87245) : S -> 0x(7) at (0x7fffffffeccc) -- Size = (4) 

-- ISN: (87247) : L from (0x7fffffffeccc) -- of Size = (4) 

-- ISN: (87256) : L from (0x7fffffffecd0) -- of Size = (8) 

-- ISN: (87254) : S -> 0x(aa) at (0x6bc424) -- Size = (4) 

-- ISN: (87259) : L from (0x7fffffffecd8) -- of Size = (8) 

-- ISN: (87262) : L from (0x7fffffffece4) -- of Size = (4) 

-- ISN: (87276) : S -> 0x(77) at (0x7fffffffecd8) -- Size = (8) 

-- ISN: (87265) : S -> 0x(8) at (0x7fffffffece4) -- Size = (4) 

-- ISN: (87279) : S -> 0x(f0) at (0x7fffffffecd0) -- Size = (8) 

-- ISN: (87266) : L from (0x7fffffffece4) -- of Size = (4) 

-- ISN: (87272) : L from (0x7fffffffece4) -- of Size = (4) 

-- ISN: (87282) : S -> 0x(8) at (0x7fffffffeccc) -- Size = (4) 

-- ISN: (87291) : S -> 0x(aa) at (0x6bc424) -- Size = (4) 

-- ISN: (87293) : L from (0x7fffffffecd0) -- of Size = (8) 

-- ISN: (87284) : L from (0x7fffffffeccc) -- of Size = (4) 

-- ISN: (87296) : L from (0x7fffffffecd8) -- of Size = (8) 

-- ISN: (87299) : L from (0x7fffffffece4) -- of Size = (4) 

-- ISN: (87302) : S -> 0x(9) at (0x7fffffffece4) -- Size = (4) 

-- ISN: (87313) : S -> 0x(77) at (0x7fffffffecd8) -- Size = (8) 

-- ISN: (87316) : S -> 0x(f0) at (0x7fffffffecd0) -- Size = (8) 

-- ISN: (87303) : L from (0x7fffffffece4) -- of Size = (4) 

-- ISN: (87309) : L from (0x7fffffffece4) -- of Size = (4) 

-- ISN: (87319) : S -> 0x(9) at (0x7fffffffeccc) -- Size = (4) 

-- ISN: (87330) : L from (0x7fffffffecd0) -- of Size = (8) 

-- ISN: (87321) : L from (0x7fffffffeccc) -- of Size = (4) 

-- ISN: (87328) : S -> 0x(aa) at (0x6bc424) -- Size = (4) 

-- ISN: (87333) : L from (0x7fffffffecd8) -- of Size = (8) 

-- ISN: (87336) : L from (0x7fffffffece4) -- of Size = (4) 

-- ISN: (87339) : S -> 0x(a) at (0x7fffffffece4) -- Size = (4) 

-- ISN: (87350) : S -> 0x(77) at (0x7fffffffecd8) -- Size = (8) 

-- ISN: (87353) : S -> 0x(f0) at (0x7fffffffecd0) -- Size = (8) 

-- ISN: (87340) : L from (0x7fffffffece4) -- of Size = (4) 

-- ISN: (87346) : L from (0x7fffffffece4) -- of Size = (4) 

-- ISN: (87356) : S -> 0x(a) at (0x7fffffffeccc) -- Size = (4) 

-- ISN: (87358) : L from (0x7fffffffeccc) -- of Size = (4) 

-- ISN: (87365) : S -> 0x(aa) at (0x6bc424) -- Size = (4) 

-- ISN: (87367) : L from (0x7fffffffecd0) -- of Size = (8) 

-- ISN: (87370) : L from (0x7fffffffecd8) -- of Size = (8) 

-- ISN: (87373) : L from (0x7fffffffece4) -- of Size = (4) 

-- ISN: (87387) : S -> 0x(77) at (0x7fffffffecd8) -- Size = (8) 

-- ISN: (87390) : S -> 0x(f0) at (0x7fffffffecd0) -- Size = (8) 

-- ISN: (87376) : S -> 0x(b) at (0x7fffffffece4) -- Size = (4) 

-- ISN: (87377) : L from (0x7fffffffece4) -- of Size = (4) 

-- ISN: (87383) : L from (0x7fffffffece4) -- of Size = (4) 

-- ISN: (87402) : S -> 0x(aa) at (0x6bc424) -- Size = (4) 

-- ISN: (87404) : L from (0x7fffffffecd0) -- of Size = (8) 

-- ISN: (87393) : S -> 0x(b) at (0x7fffffffeccc) -- Size = (4) 

-- ISN: (87395) : L from (0x7fffffffeccc) -- of Size = (4) 

-- ISN: (87407) : L from (0x7fffffffecd8) -- of Size = (8) 

-- ISN: (87410) : L from (0x7fffffffece4) -- of Size = (4) 

-- ISN: (87413) : S -> 0x(c) at (0x7fffffffece4) -- Size = (4) 

-- ISN: (87424) : S -> 0x(77) at (0x7fffffffecd8) -- Size = (8) 

-- ISN: (87427) : S -> 0x(f0) at (0x7fffffffecd0) -- Size = (8) 

-- ISN: (87414) : L from (0x7fffffffece4) -- of Size = (4) 

-- ISN: (87420) : L from (0x7fffffffece4) -- of Size = (4) 

-- ISN: (87430) : S -> 0x(c) at (0x7fffffffeccc) -- Size = (4) 

-- ISN: (87441) : L from (0x7fffffffecd0) -- of Size = (8) 

-- ISN: (87432) : L from (0x7fffffffeccc) -- of Size = (4) 

-- ISN: (87439) : S -> 0x(aa) at (0x6bc424) -- Size = (4) 

-- ISN: (87444) : L from (0x7fffffffecd8) -- of Size = (8) 

-- ISN: (87447) : L from (0x7fffffffece4) -- of Size = (4) 

-- ISN: (87450) : S -> 0x(d) at (0x7fffffffece4) -- Size = (4) 

-- ISN: (87461) : S -> 0x(77) at (0x7fffffffecd8) -- Size = (8) 

-- ISN: (87464) : S -> 0x(f0) at (0x7fffffffecd0) -- Size = (8) 

-- ISN: (87451) : L from (0x7fffffffece4) -- of Size = (4) 

-- ISN: (87457) : L from (0x7fffffffece4) -- of Size = (4) 

-- ISN: (87467) : S -> 0x(d) at (0x7fffffffeccc) -- Size = (4) 

-- ISN: (87469) : L from (0x7fffffffeccc) -- of Size = (4) 

-- ISN: (87476) : S -> 0x(aa) at (0x6bc424) -- Size = (4) 

-- ISN: (87478) : L from (0x7fffffffecd0) -- of Size = (8) 

-- ISN: (87481) : L from (0x7fffffffecd8) -- of Size = (8) 

-- ISN: (87484) : L from (0x7fffffffece4) -- of Size = (4) 

-- ISN: (87498) : S -> 0x(77) at (0x7fffffffecd8) -- Size = (8) 

-- ISN: (87501) : S -> 0x(f0) at (0x7fffffffecd0) -- Size = (8) 

-- ISN: (87487) : S -> 0x(e) at (0x7fffffffece4) -- Size = (4) 

-- ISN: (87488) : L from (0x7fffffffece4) -- of Size = (4) 

-- ISN: (87494) : L from (0x7fffffffece4) -- of Size = (4) 

-- ISN: (87513) : S -> 0x(aa) at (0x6bc424) -- Size = (4) 

-- ISN: (87515) : L from (0x7fffffffecd0) -- of Size = (8) 

-- ISN: (87504) : S -> 0x(e) at (0x7fffffffeccc) -- Size = (4) 

-- ISN: (87506) : L from (0x7fffffffeccc) -- of Size = (4) 

-- ISN: (87518) : L from (0x7fffffffecd8) -- of Size = (8) 

-- ISN: (87521) : L from (0x7fffffffece4) -- of Size = (4) 

-- ISN: (87524) : S -> 0x(f) at (0x7fffffffece4) -- Size = (4) 

-- ISN: (87535) : S -> 0x(77) at (0x7fffffffecd8) -- Size = (8) 

-- ISN: (87538) : S -> 0x(f0) at (0x7fffffffecd0) -- Size = (8) 

-- ISN: (87525) : L from (0x7fffffffece4) -- of Size = (4) 

-- ISN: (87531) : L from (0x7fffffffece4) -- of Size = (4) 

-- ISN: (87541) : S -> 0x(f) at (0x7fffffffeccc) -- Size = (4) 

-- ISN: (87552) : L from (0x7fffffffecd0) -- of Size = (8) 

-- ISN: (87543) : L from (0x7fffffffeccc) -- of Size = (4) 

-- ISN: (87550) : S -> 0x(aa) at (0x6bc424) -- Size = (4) 

-- ISN: (87555) : L from (0x7fffffffecd8) -- of Size = (8) 

-- ISN: (87558) : L from (0x7fffffffece4) -- of Size = (4) 

-- ISN: (87561) : S -> 0x(10) at (0x7fffffffece4) -- Size = (4) 

-- ISN: (87572) : S -> 0x(77) at (0x7fffffffecd8) -- Size = (8) 

-- ISN: (87575) : S -> 0x(f0) at (0x7fffffffecd0) -- Size = (8) 

-- ISN: (87562) : L from (0x7fffffffece4) -- of Size = (4) 

-- ISN: (87568) : L from (0x7fffffffece4) -- of Size = (4) 

-- ISN: (87578) : S -> 0x(10) at (0x7fffffffeccc) -- Size = (4) 

-- ISN: (87580) : L from (0x7fffffffeccc) -- of Size = (4) 

-- ISN: (87587) : S -> 0x(aa) at (0x6bc424) -- Size = (4) 

-- ISN: (87589) : L from (0x7fffffffecd0) -- of Size = (8) 

-- ISN: (87592) : L from (0x7fffffffecd8) -- of Size = (8) 

-- ISN: (87595) : L from (0x7fffffffece4) -- of Size = (4) 

-- ISN: (87609) : S -> 0x(77) at (0x7fffffffecd8) -- Size = (8) 

-- ISN: (87612) : S -> 0x(f0) at (0x7fffffffecd0) -- Size = (8) 

-- ISN: (87598) : S -> 0x(11) at (0x7fffffffece4) -- Size = (4) 

-- ISN: (87599) : L from (0x7fffffffece4) -- of Size = (4) 

-- ISN: (87605) : L from (0x7fffffffece4) -- of Size = (4) 

-- ISN: (87624) : S -> 0x(aa) at (0x6bc424) -- Size = (4) 

-- ISN: (87626) : L from (0x7fffffffecd0) -- of Size = (8) 

-- ISN: (87615) : S -> 0x(11) at (0x7fffffffeccc) -- Size = (4) 

-- ISN: (87617) : L from (0x7fffffffeccc) -- of Size = (4) 

-- ISN: (87629) : L from (0x7fffffffecd8) -- of Size = (8) 

-- ISN: (87632) : L from (0x7fffffffece4) -- of Size = (4) 

-- ISN: (87635) : S -> 0x(12) at (0x7fffffffece4) -- Size = (4) 

-- ISN: (87646) : S -> 0x(77) at (0x7fffffffecd8) -- Size = (8) 

-- ISN: (87649) : S -> 0x(f0) at (0x7fffffffecd0) -- Size = (8) 

-- ISN: (87636) : L from (0x7fffffffece4) -- of Size = (4) 

-- ISN: (87642) : L from (0x7fffffffece4) -- of Size = (4) 

-- ISN: (87652) : S -> 0x(12) at (0x7fffffffeccc) -- Size = (4) 

-- ISN: (87663) : L from (0x7fffffffecd0) -- of Size = (8) 

-- ISN: (87654) : L from (0x7fffffffeccc) -- of Size = (4) 

-- ISN: (87661) : S -> 0x(aa) at (0x6bc424) -- Size = (4) 

-- ISN: (87666) : L from (0x7fffffffecd8) -- of Size = (8) 

-- ISN: (87669) : L from (0x7fffffffece4) -- of Size = (4) 

-- ISN: (87672) : S -> 0x(13) at (0x7fffffffece4) -- Size = (4) 

-- ISN: (87683) : S -> 0x(77) at (0x7fffffffecd8) -- Size = (8) 

-- ISN: (87686) : S -> 0x(f0) at (0x7fffffffecd0) -- Size = (8) 

-- ISN: (87673) : L from (0x7fffffffece4) -- of Size = (4) 

-- ISN: (87679) : L from (0x7fffffffece4) -- of Size = (4) 

-- ISN: (87689) : S -> 0x(13) at (0x7fffffffeccc) -- Size = (4) 

-- ISN: (87691) : L from (0x7fffffffeccc) -- of Size = (4) 

-- ISN: (87698) : S -> 0x(aa) at (0x6bc424) -- Size = (4) 

-- ISN: (87700) : L from (0x7fffffffecd0) -- of Size = (8) 

-- ISN: (87703) : L from (0x7fffffffecd8) -- of Size = (8) 

-- ISN: (87706) : L from (0x7fffffffece4) -- of Size = (4) 

-- ISN: (87720) : S -> 0x(77) at (0x7fffffffecd8) -- Size = (8) 

-- ISN: (87723) : S -> 0x(f0) at (0x7fffffffecd0) -- Size = (8) 

-- ISN: (87709) : S -> 0x(14) at (0x7fffffffece4) -- Size = (4) 

-- ISN: (87710) : L from (0x7fffffffece4) -- of Size = (4) 

-- ISN: (87716) : L from (0x7fffffffece4) -- of Size = (4) 

-- ISN: (87735) : S -> 0x(aa) at (0x6bc424) -- Size = (4) 

-- ISN: (87737) : L from (0x7fffffffecd0) -- of Size = (8) 

-- ISN: (87726) : S -> 0x(14) at (0x7fffffffeccc) -- Size = (4) 

-- ISN: (87728) : L from (0x7fffffffeccc) -- of Size = (4) 

-- ISN: (87740) : L from (0x7fffffffecd8) -- of Size = (8) 

-- ISN: (87743) : L from (0x7fffffffece4) -- of Size = (4) 

-- ISN: (87746) : S -> 0x(15) at (0x7fffffffece4) -- Size = (4) 

-- ISN: (87757) : S -> 0x(77) at (0x7fffffffecd8) -- Size = (8) 

-- ISN: (87760) : S -> 0x(f0) at (0x7fffffffecd0) -- Size = (8) 

-- ISN: (87747) : L from (0x7fffffffece4) -- of Size = (4) 

-- ISN: (87753) : L from (0x7fffffffece4) -- of Size = (4) 

-- ISN: (87763) : S -> 0x(15) at (0x7fffffffeccc) -- Size = (4) 

-- ISN: (87774) : L from (0x7fffffffecd0) -- of Size = (8) 

-- ISN: (87765) : L from (0x7fffffffeccc) -- of Size = (4) 

-- ISN: (87772) : S -> 0x(aa) at (0x6bc424) -- Size = (4) 

-- ISN: (87777) : L from (0x7fffffffecd8) -- of Size = (8) 

-- ISN: (87780) : L from (0x7fffffffece4) -- of Size = (4) 

-- ISN: (87783) : S -> 0x(16) at (0x7fffffffece4) -- Size = (4) 

-- ISN: (87794) : S -> 0x(77) at (0x7fffffffecd8) -- Size = (8) 

-- ISN: (87797) : S -> 0x(f0) at (0x7fffffffecd0) -- Size = (8) 

-- ISN: (87784) : L from (0x7fffffffece4) -- of Size = (4) 

-- ISN: (87790) : L from (0x7fffffffece4) -- of Size = (4) 

-- ISN: (87800) : S -> 0x(16) at (0x7fffffffeccc) -- Size = (4) 

-- ISN: (87802) : L from (0x7fffffffeccc) -- of Size = (4) 

-- ISN: (87809) : S -> 0x(aa) at (0x6bc424) -- Size = (4) 

-- ISN: (87811) : L from (0x7fffffffecd0) -- of Size = (8) 

-- ISN: (87814) : L from (0x7fffffffecd8) -- of Size = (8) 

-- ISN: (87817) : L from (0x7fffffffece4) -- of Size = (4) 

-- ISN: (87831) : S -> 0x(77) at (0x7fffffffecd8) -- Size = (8) 

-- ISN: (87834) : S -> 0x(f0) at (0x7fffffffecd0) -- Size = (8) 

-- ISN: (87820) : S -> 0x(17) at (0x7fffffffece4) -- Size = (4) 

-- ISN: (87821) : L from (0x7fffffffece4) -- of Size = (4) 

-- ISN: (87827) : L from (0x7fffffffece4) -- of Size = (4) 

-- ISN: (87846) : S -> 0x(aa) at (0x6bc424) -- Size = (4) 

-- ISN: (87848) : L from (0x7fffffffecd0) -- of Size = (8) 

-- ISN: (87837) : S -> 0x(17) at (0x7fffffffeccc) -- Size = (4) 

-- ISN: (87839) : L from (0x7fffffffeccc) -- of Size = (4) 

-- ISN: (87851) : L from (0x7fffffffecd8) -- of Size = (8) 

-- ISN: (87854) : L from (0x7fffffffece4) -- of Size = (4) 

-- ISN: (87857) : S -> 0x(18) at (0x7fffffffece4) -- Size = (4) 

-- ISN: (87868) : S -> 0x(77) at (0x7fffffffecd8) -- Size = (8) 

-- ISN: (87871) : S -> 0x(f0) at (0x7fffffffecd0) -- Size = (8) 

-- ISN: (87858) : L from (0x7fffffffece4) -- of Size = (4) 

-- ISN: (87864) : L from (0x7fffffffece4) -- of Size = (4) 

-- ISN: (87874) : S -> 0x(18) at (0x7fffffffeccc) -- Size = (4) 

-- ISN: (87885) : L from (0x7fffffffecd0) -- of Size = (8) 

-- ISN: (87876) : L from (0x7fffffffeccc) -- of Size = (4) 

-- ISN: (87883) : S -> 0x(aa) at (0x6bc424) -- Size = (4) 

-- ISN: (87888) : L from (0x7fffffffecd8) -- of Size = (8) 

-- ISN: (87891) : L from (0x7fffffffece4) -- of Size = (4) 

-- ISN: (87894) : S -> 0x(19) at (0x7fffffffece4) -- Size = (4) 

-- ISN: (87905) : S -> 0x(77) at (0x7fffffffecd8) -- Size = (8) 

-- ISN: (87908) : S -> 0x(f0) at (0x7fffffffecd0) -- Size = (8) 

-- ISN: (87895) : L from (0x7fffffffece4) -- of Size = (4) 

-- ISN: (87901) : L from (0x7fffffffece4) -- of Size = (4) 

-- ISN: (87911) : S -> 0x(19) at (0x7fffffffeccc) -- Size = (4) 

-- ISN: (87913) : L from (0x7fffffffeccc) -- of Size = (4) 

-- ISN: (87920) : S -> 0x(aa) at (0x6bc424) -- Size = (4) 

-- ISN: (87922) : L from (0x7fffffffecd0) -- of Size = (8) 

-- ISN: (87925) : L from (0x7fffffffecd8) -- of Size = (8) 

-- ISN: (87928) : L from (0x7fffffffece4) -- of Size = (4) 

-- ISN: (87942) : S -> 0x(77) at (0x7fffffffecd8) -- Size = (8) 

-- ISN: (87945) : S -> 0x(f0) at (0x7fffffffecd0) -- Size = (8) 

-- ISN: (87931) : S -> 0x(1a) at (0x7fffffffece4) -- Size = (4) 

-- ISN: (87932) : L from (0x7fffffffece4) -- of Size = (4) 

-- ISN: (87938) : L from (0x7fffffffece4) -- of Size = (4) 

-- ISN: (87957) : S -> 0x(aa) at (0x6bc424) -- Size = (4) 

-- ISN: (87959) : L from (0x7fffffffecd0) -- of Size = (8) 

-- ISN: (87948) : S -> 0x(1a) at (0x7fffffffeccc) -- Size = (4) 

-- ISN: (87950) : L from (0x7fffffffeccc) -- of Size = (4) 

-- ISN: (87962) : L from (0x7fffffffecd8) -- of Size = (8) 

-- ISN: (87965) : L from (0x7fffffffece4) -- of Size = (4) 

-- ISN: (87968) : S -> 0x(1b) at (0x7fffffffece4) -- Size = (4) 

-- ISN: (87979) : S -> 0x(77) at (0x7fffffffecd8) -- Size = (8) 

-- ISN: (87982) : S -> 0x(f0) at (0x7fffffffecd0) -- Size = (8) 

-- ISN: (87969) : L from (0x7fffffffece4) -- of Size = (4) 

-- ISN: (87975) : L from (0x7fffffffece4) -- of Size = (4) 

-- ISN: (87985) : S -> 0x(1b) at (0x7fffffffeccc) -- Size = (4) 

-- ISN: (87996) : L from (0x7fffffffecd0) -- of Size = (8) 

-- ISN: (87987) : L from (0x7fffffffeccc) -- of Size = (4) 

-- ISN: (87994) : S -> 0x(aa) at (0x6bc424) -- Size = (4) 

-- ISN: (87999) : L from (0x7fffffffecd8) -- of Size = (8) 

-- ISN: (88002) : L from (0x7fffffffece4) -- of Size = (4) 

-- ISN: (88005) : S -> 0x(1c) at (0x7fffffffece4) -- Size = (4) 

-- ISN: (88016) : S -> 0x(77) at (0x7fffffffecd8) -- Size = (8) 

-- ISN: (88019) : S -> 0x(f0) at (0x7fffffffecd0) -- Size = (8) 

-- ISN: (88006) : L from (0x7fffffffece4) -- of Size = (4) 

-- ISN: (88012) : L from (0x7fffffffece4) -- of Size = (4) 

-- ISN: (88022) : S -> 0x(1c) at (0x7fffffffeccc) -- Size = (4) 

-- ISN: (88024) : L from (0x7fffffffeccc) -- of Size = (4) 

-- ISN: (88031) : S -> 0x(aa) at (0x6bc424) -- Size = (4) 

-- ISN: (88033) : L from (0x7fffffffecd0) -- of Size = (8) 

-- ISN: (88036) : L from (0x7fffffffecd8) -- of Size = (8) 

-- ISN: (88039) : L from (0x7fffffffece4) -- of Size = (4) 

-- ISN: (88053) : S -> 0x(77) at (0x7fffffffecd8) -- Size = (8) 

-- ISN: (88056) : S -> 0x(f0) at (0x7fffffffecd0) -- Size = (8) 

-- ISN: (88042) : S -> 0x(1d) at (0x7fffffffece4) -- Size = (4) 

-- ISN: (88043) : L from (0x7fffffffece4) -- of Size = (4) 

-- ISN: (88049) : L from (0x7fffffffece4) -- of Size = (4) 

-- ISN: (88068) : S -> 0x(aa) at (0x6bc424) -- Size = (4) 

-- ISN: (88070) : L from (0x7fffffffecd0) -- of Size = (8) 

-- ISN: (88059) : S -> 0x(1d) at (0x7fffffffeccc) -- Size = (4) 

-- ISN: (88061) : L from (0x7fffffffeccc) -- of Size = (4) 

-- ISN: (88073) : L from (0x7fffffffecd8) -- of Size = (8) 

-- ISN: (88076) : L from (0x7fffffffece4) -- of Size = (4) 

-- ISN: (88079) : S -> 0x(1e) at (0x7fffffffece4) -- Size = (4) 

-- ISN: (88090) : S -> 0x(77) at (0x7fffffffecd8) -- Size = (8) 

-- ISN: (88093) : S -> 0x(f0) at (0x7fffffffecd0) -- Size = (8) 

-- ISN: (88080) : L from (0x7fffffffece4) -- of Size = (4) 

-- ISN: (88086) : L from (0x7fffffffece4) -- of Size = (4) 

-- ISN: (88096) : S -> 0x(1e) at (0x7fffffffeccc) -- Size = (4) 

-- ISN: (88107) : L from (0x7fffffffecd0) -- of Size = (8) 

-- ISN: (88098) : L from (0x7fffffffeccc) -- of Size = (4) 

-- ISN: (88105) : S -> 0x(aa) at (0x6bc424) -- Size = (4) 

-- ISN: (88110) : L from (0x7fffffffecd8) -- of Size = (8) 

-- ISN: (88113) : L from (0x7fffffffece4) -- of Size = (4) 

-- ISN: (88116) : S -> 0x(1f) at (0x7fffffffece4) -- Size = (4) 

-- ISN: (88127) : S -> 0x(77) at (0x7fffffffecd8) -- Size = (8) 

-- ISN: (88130) : S -> 0x(f0) at (0x7fffffffecd0) -- Size = (8) 

-- ISN: (88117) : L from (0x7fffffffece4) -- of Size = (4) 

-- ISN: (88123) : L from (0x7fffffffece4) -- of Size = (4) 

-- ISN: (88133) : S -> 0x(1f) at (0x7fffffffeccc) -- Size = (4) 

-- ISN: (88135) : L from (0x7fffffffeccc) -- of Size = (4) 

-- ISN: (88142) : S -> 0x(aa) at (0x6bc424) -- Size = (4) 

-- ISN: (88144) : L from (0x7fffffffecd0) -- of Size = (8) 

-- ISN: (88147) : L from (0x7fffffffecd8) -- of Size = (8) 

-- ISN: (88150) : L from (0x7fffffffece4) -- of Size = (4) 

-- ISN: (88164) : S -> 0x(77) at (0x7fffffffecd8) -- Size = (8) 

-- ISN: (88167) : S -> 0x(f0) at (0x7fffffffecd0) -- Size = (8) 

-- ISN: (88153) : S -> 0x(20) at (0x7fffffffece4) -- Size = (4) 

-- ISN: (88154) : L from (0x7fffffffece4) -- of Size = (4) 

-- ISN: (88160) : L from (0x7fffffffece4) -- of Size = (4) 

-- ISN: (88179) : S -> 0x(aa) at (0x6bc424) -- Size = (4) 

-- ISN: (88181) : L from (0x7fffffffecd0) -- of Size = (8) 

-- ISN: (88170) : S -> 0x(20) at (0x7fffffffeccc) -- Size = (4) 

-- ISN: (88172) : L from (0x7fffffffeccc) -- of Size = (4) 

-- ISN: (88184) : L from (0x7fffffffecd8) -- of Size = (8) 

-- ISN: (88187) : L from (0x7fffffffece4) -- of Size = (4) 

-- ISN: (88190) : S -> 0x(21) at (0x7fffffffece4) -- Size = (4) 

-- ISN: (88201) : S -> 0x(77) at (0x7fffffffecd8) -- Size = (8) 

-- ISN: (88204) : S -> 0x(f0) at (0x7fffffffecd0) -- Size = (8) 

-- ISN: (88191) : L from (0x7fffffffece4) -- of Size = (4) 

-- ISN: (88197) : L from (0x7fffffffece4) -- of Size = (4) 

-- ISN: (88207) : S -> 0x(21) at (0x7fffffffeccc) -- Size = (4) 

-- ISN: (88218) : L from (0x7fffffffecd0) -- of Size = (8) 

-- ISN: (88209) : L from (0x7fffffffeccc) -- of Size = (4) 

-- ISN: (88216) : S -> 0x(aa) at (0x6bc424) -- Size = (4) 

-- ISN: (88221) : L from (0x7fffffffecd8) -- of Size = (8) 

-- ISN: (88224) : L from (0x7fffffffece4) -- of Size = (4) 

-- ISN: (88227) : S -> 0x(22) at (0x7fffffffece4) -- Size = (4) 

-- ISN: (88238) : S -> 0x(77) at (0x7fffffffecd8) -- Size = (8) 

-- ISN: (88241) : S -> 0x(f0) at (0x7fffffffecd0) -- Size = (8) 

-- ISN: (88228) : L from (0x7fffffffece4) -- of Size = (4) 

-- ISN: (88234) : L from (0x7fffffffece4) -- of Size = (4) 

-- ISN: (88244) : S -> 0x(22) at (0x7fffffffeccc) -- Size = (4) 

-- ISN: (88246) : L from (0x7fffffffeccc) -- of Size = (4) 

-- ISN: (88253) : S -> 0x(aa) at (0x6bc424) -- Size = (4) 

-- ISN: (88255) : L from (0x7fffffffecd0) -- of Size = (8) 

-- ISN: (88258) : L from (0x7fffffffecd8) -- of Size = (8) 

-- ISN: (88261) : L from (0x7fffffffece4) -- of Size = (4) 

-- ISN: (88275) : S -> 0x(77) at (0x7fffffffecd8) -- Size = (8) 

-- ISN: (88278) : S -> 0x(f0) at (0x7fffffffecd0) -- Size = (8) 

-- ISN: (88264) : S -> 0x(23) at (0x7fffffffece4) -- Size = (4) 

-- ISN: (88265) : L from (0x7fffffffece4) -- of Size = (4) 

-- ISN: (88271) : L from (0x7fffffffece4) -- of Size = (4) 

-- ISN: (88290) : S -> 0x(aa) at (0x6bc424) -- Size = (4) 

-- ISN: (88292) : L from (0x7fffffffecd0) -- of Size = (8) 

-- ISN: (88281) : S -> 0x(23) at (0x7fffffffeccc) -- Size = (4) 

-- ISN: (88283) : L from (0x7fffffffeccc) -- of Size = (4) 

-- ISN: (88295) : L from (0x7fffffffecd8) -- of Size = (8) 

-- ISN: (88298) : L from (0x7fffffffece4) -- of Size = (4) 

-- ISN: (88301) : S -> 0x(24) at (0x7fffffffece4) -- Size = (4) 

-- ISN: (88312) : S -> 0x(77) at (0x7fffffffecd8) -- Size = (8) 

-- ISN: (88315) : S -> 0x(f0) at (0x7fffffffecd0) -- Size = (8) 

-- ISN: (88302) : L from (0x7fffffffece4) -- of Size = (4) 

-- ISN: (88308) : L from (0x7fffffffece4) -- of Size = (4) 

-- ISN: (88318) : S -> 0x(24) at (0x7fffffffeccc) -- Size = (4) 

-- ISN: (88329) : L from (0x7fffffffecd0) -- of Size = (8) 

-- ISN: (88320) : L from (0x7fffffffeccc) -- of Size = (4) 

-- ISN: (88327) : S -> 0x(aa) at (0x6bc424) -- Size = (4) 

-- ISN: (88332) : L from (0x7fffffffecd8) -- of Size = (8) 

-- ISN: (88335) : L from (0x7fffffffece4) -- of Size = (4) 

-- ISN: (88338) : S -> 0x(25) at (0x7fffffffece4) -- Size = (4) 

-- ISN: (88349) : S -> 0x(77) at (0x7fffffffecd8) -- Size = (8) 

-- ISN: (88352) : S -> 0x(f0) at (0x7fffffffecd0) -- Size = (8) 

-- ISN: (88339) : L from (0x7fffffffece4) -- of Size = (4) 

-- ISN: (88345) : L from (0x7fffffffece4) -- of Size = (4) 

-- ISN: (88355) : S -> 0x(25) at (0x7fffffffeccc) -- Size = (4) 

-- ISN: (88357) : L from (0x7fffffffeccc) -- of Size = (4) 

-- ISN: (88364) : S -> 0x(aa) at (0x6bc424) -- Size = (4) 

-- ISN: (88366) : L from (0x7fffffffecd0) -- of Size = (8) 

-- ISN: (88369) : L from (0x7fffffffecd8) -- of Size = (8) 

-- ISN: (88372) : L from (0x7fffffffece4) -- of Size = (4) 

-- ISN: (88386) : S -> 0x(77) at (0x7fffffffecd8) -- Size = (8) 

-- ISN: (88389) : S -> 0x(f0) at (0x7fffffffecd0) -- Size = (8) 

-- ISN: (88375) : S -> 0x(26) at (0x7fffffffece4) -- Size = (4) 

-- ISN: (88376) : L from (0x7fffffffece4) -- of Size = (4) 

-- ISN: (88382) : L from (0x7fffffffece4) -- of Size = (4) 

-- ISN: (88401) : S -> 0x(aa) at (0x6bc424) -- Size = (4) 

-- ISN: (88403) : L from (0x7fffffffecd0) -- of Size = (8) 

-- ISN: (88392) : S -> 0x(26) at (0x7fffffffeccc) -- Size = (4) 

-- ISN: (88394) : L from (0x7fffffffeccc) -- of Size = (4) 

-- ISN: (88406) : L from (0x7fffffffecd8) -- of Size = (8) 

-- ISN: (88409) : L from (0x7fffffffece4) -- of Size = (4) 

-- ISN: (88412) : S -> 0x(27) at (0x7fffffffece4) -- Size = (4) 

-- ISN: (88423) : S -> 0x(77) at (0x7fffffffecd8) -- Size = (8) 

-- ISN: (88426) : S -> 0x(f0) at (0x7fffffffecd0) -- Size = (8) 

-- ISN: (88413) : L from (0x7fffffffece4) -- of Size = (4) 

-- ISN: (88419) : L from (0x7fffffffece4) -- of Size = (4) 

-- ISN: (88429) : S -> 0x(27) at (0x7fffffffeccc) -- Size = (4) 

-- ISN: (88440) : L from (0x7fffffffecd0) -- of Size = (8) 

-- ISN: (88431) : L from (0x7fffffffeccc) -- of Size = (4) 

-- ISN: (88438) : S -> 0x(aa) at (0x6bc424) -- Size = (4) 

-- ISN: (88443) : L from (0x7fffffffecd8) -- of Size = (8) 

-- ISN: (88446) : L from (0x7fffffffece4) -- of Size = (4) 

-- ISN: (88449) : S -> 0x(28) at (0x7fffffffece4) -- Size = (4) 

-- ISN: (88460) : S -> 0x(77) at (0x7fffffffecd8) -- Size = (8) 

-- ISN: (88463) : S -> 0x(f0) at (0x7fffffffecd0) -- Size = (8) 

-- ISN: (88450) : L from (0x7fffffffece4) -- of Size = (4) 

-- ISN: (88456) : L from (0x7fffffffece4) -- of Size = (4) 

-- ISN: (88466) : S -> 0x(28) at (0x7fffffffeccc) -- Size = (4) 

-- ISN: (88468) : L from (0x7fffffffeccc) -- of Size = (4) 

-- ISN: (88475) : S -> 0x(aa) at (0x6bc424) -- Size = (4) 

-- ISN: (88477) : L from (0x7fffffffecd0) -- of Size = (8) 

-- ISN: (88480) : L from (0x7fffffffecd8) -- of Size = (8) 

-- ISN: (88483) : L from (0x7fffffffece4) -- of Size = (4) 

-- ISN: (88497) : S -> 0x(77) at (0x7fffffffecd8) -- Size = (8) 

-- ISN: (88500) : S -> 0x(f0) at (0x7fffffffecd0) -- Size = (8) 

-- ISN: (88486) : S -> 0x(29) at (0x7fffffffece4) -- Size = (4) 

-- ISN: (88487) : L from (0x7fffffffece4) -- of Size = (4) 

-- ISN: (88493) : L from (0x7fffffffece4) -- of Size = (4) 

-- ISN: (88512) : S -> 0x(aa) at (0x6bc424) -- Size = (4) 

-- ISN: (88514) : L from (0x7fffffffecd0) -- of Size = (8) 

-- ISN: (88503) : S -> 0x(29) at (0x7fffffffeccc) -- Size = (4) 

-- ISN: (88505) : L from (0x7fffffffeccc) -- of Size = (4) 

-- ISN: (88517) : L from (0x7fffffffecd8) -- of Size = (8) 

-- ISN: (88520) : L from (0x7fffffffece4) -- of Size = (4) 

-- ISN: (88523) : S -> 0x(2a) at (0x7fffffffece4) -- Size = (4) 

-- ISN: (88534) : S -> 0x(77) at (0x7fffffffecd8) -- Size = (8) 

-- ISN: (88537) : S -> 0x(f0) at (0x7fffffffecd0) -- Size = (8) 

-- ISN: (88524) : L from (0x7fffffffece4) -- of Size = (4) 

-- ISN: (88530) : L from (0x7fffffffece4) -- of Size = (4) 

-- ISN: (88540) : S -> 0x(2a) at (0x7fffffffeccc) -- Size = (4) 

-- ISN: (88551) : L from (0x7fffffffecd0) -- of Size = (8) 

-- ISN: (88542) : L from (0x7fffffffeccc) -- of Size = (4) 

-- ISN: (88549) : S -> 0x(aa) at (0x6bc424) -- Size = (4) 

-- ISN: (88554) : L from (0x7fffffffecd8) -- of Size = (8) 

-- ISN: (88557) : L from (0x7fffffffece4) -- of Size = (4) 

-- ISN: (88560) : S -> 0x(2b) at (0x7fffffffece4) -- Size = (4) 

-- ISN: (88571) : S -> 0x(77) at (0x7fffffffecd8) -- Size = (8) 

-- ISN: (88574) : S -> 0x(f0) at (0x7fffffffecd0) -- Size = (8) 

-- ISN: (88561) : L from (0x7fffffffece4) -- of Size = (4) 

-- ISN: (88567) : L from (0x7fffffffece4) -- of Size = (4) 

-- ISN: (88577) : S -> 0x(2b) at (0x7fffffffeccc) -- Size = (4) 

-- ISN: (88579) : L from (0x7fffffffeccc) -- of Size = (4) 

-- ISN: (88586) : S -> 0x(aa) at (0x6bc424) -- Size = (4) 

-- ISN: (88588) : L from (0x7fffffffecd0) -- of Size = (8) 

-- ISN: (88591) : L from (0x7fffffffecd8) -- of Size = (8) 

-- ISN: (88594) : L from (0x7fffffffece4) -- of Size = (4) 

-- ISN: (88608) : S -> 0x(77) at (0x7fffffffecd8) -- Size = (8) 

-- ISN: (88611) : S -> 0x(f0) at (0x7fffffffecd0) -- Size = (8) 

-- ISN: (88597) : S -> 0x(2c) at (0x7fffffffece4) -- Size = (4) 

-- ISN: (88598) : L from (0x7fffffffece4) -- of Size = (4) 

-- ISN: (88604) : L from (0x7fffffffece4) -- of Size = (4) 

-- ISN: (88623) : S -> 0x(aa) at (0x6bc424) -- Size = (4) 

-- ISN: (88625) : L from (0x7fffffffecd0) -- of Size = (8) 

-- ISN: (88614) : S -> 0x(2c) at (0x7fffffffeccc) -- Size = (4) 

-- ISN: (88616) : L from (0x7fffffffeccc) -- of Size = (4) 

-- ISN: (88628) : L from (0x7fffffffecd8) -- of Size = (8) 

-- ISN: (88631) : L from (0x7fffffffece4) -- of Size = (4) 

-- ISN: (88634) : S -> 0x(2d) at (0x7fffffffece4) -- Size = (4) 

-- ISN: (88645) : S -> 0x(77) at (0x7fffffffecd8) -- Size = (8) 

-- ISN: (88648) : S -> 0x(f0) at (0x7fffffffecd0) -- Size = (8) 

-- ISN: (88635) : L from (0x7fffffffece4) -- of Size = (4) 

-- ISN: (88641) : L from (0x7fffffffece4) -- of Size = (4) 

-- ISN: (88651) : S -> 0x(2d) at (0x7fffffffeccc) -- Size = (4) 

-- ISN: (88662) : L from (0x7fffffffecd0) -- of Size = (8) 

-- ISN: (88653) : L from (0x7fffffffeccc) -- of Size = (4) 

-- ISN: (88660) : S -> 0x(aa) at (0x6bc424) -- Size = (4) 

-- ISN: (88665) : L from (0x7fffffffecd8) -- of Size = (8) 

-- ISN: (88668) : L from (0x7fffffffece4) -- of Size = (4) 

-- ISN: (88671) : S -> 0x(2e) at (0x7fffffffece4) -- Size = (4) 

-- ISN: (88682) : S -> 0x(77) at (0x7fffffffecd8) -- Size = (8) 

-- ISN: (88685) : S -> 0x(f0) at (0x7fffffffecd0) -- Size = (8) 

-- ISN: (88672) : L from (0x7fffffffece4) -- of Size = (4) 

-- ISN: (88678) : L from (0x7fffffffece4) -- of Size = (4) 

-- ISN: (88688) : S -> 0x(2e) at (0x7fffffffeccc) -- Size = (4) 

-- ISN: (88690) : L from (0x7fffffffeccc) -- of Size = (4) 

-- ISN: (88697) : S -> 0x(aa) at (0x6bc424) -- Size = (4) 

-- ISN: (88699) : L from (0x7fffffffecd0) -- of Size = (8) 

-- ISN: (88702) : L from (0x7fffffffecd8) -- of Size = (8) 

-- ISN: (88705) : L from (0x7fffffffece4) -- of Size = (4) 

-- ISN: (88719) : S -> 0x(77) at (0x7fffffffecd8) -- Size = (8) 

-- ISN: (88722) : S -> 0x(f0) at (0x7fffffffecd0) -- Size = (8) 

-- ISN: (88708) : S -> 0x(2f) at (0x7fffffffece4) -- Size = (4) 

-- ISN: (88709) : L from (0x7fffffffece4) -- of Size = (4) 

-- ISN: (88715) : L from (0x7fffffffece4) -- of Size = (4) 

-- ISN: (88734) : S -> 0x(aa) at (0x6bc424) -- Size = (4) 

-- ISN: (88736) : L from (0x7fffffffecd0) -- of Size = (8) 

-- ISN: (88725) : S -> 0x(2f) at (0x7fffffffeccc) -- Size = (4) 

-- ISN: (88727) : L from (0x7fffffffeccc) -- of Size = (4) 

-- ISN: (88739) : L from (0x7fffffffecd8) -- of Size = (8) 

-- ISN: (88742) : L from (0x7fffffffece4) -- of Size = (4) 

-- ISN: (88745) : S -> 0x(30) at (0x7fffffffece4) -- Size = (4) 

-- ISN: (88756) : S -> 0x(77) at (0x7fffffffecd8) -- Size = (8) 

-- ISN: (88759) : S -> 0x(f0) at (0x7fffffffecd0) -- Size = (8) 

-- ISN: (88746) : L from (0x7fffffffece4) -- of Size = (4) 

-- ISN: (88752) : L from (0x7fffffffece4) -- of Size = (4) 

-- ISN: (88762) : S -> 0x(30) at (0x7fffffffeccc) -- Size = (4) 

-- ISN: (88773) : L from (0x7fffffffecd0) -- of Size = (8) 

-- ISN: (88764) : L from (0x7fffffffeccc) -- of Size = (4) 

-- ISN: (88771) : S -> 0x(aa) at (0x6bc424) -- Size = (4) 

-- ISN: (88776) : L from (0x7fffffffecd8) -- of Size = (8) 

-- ISN: (88779) : L from (0x7fffffffece4) -- of Size = (4) 

-- ISN: (88782) : S -> 0x(31) at (0x7fffffffece4) -- Size = (4) 

-- ISN: (88793) : S -> 0x(77) at (0x7fffffffecd8) -- Size = (8) 

-- ISN: (88796) : S -> 0x(f0) at (0x7fffffffecd0) -- Size = (8) 

-- ISN: (88783) : L from (0x7fffffffece4) -- of Size = (4) 

-- ISN: (88789) : L from (0x7fffffffece4) -- of Size = (4) 

-- ISN: (88799) : S -> 0x(31) at (0x7fffffffeccc) -- Size = (4) 

-- ISN: (88801) : L from (0x7fffffffeccc) -- of Size = (4) 

-- ISN: (88808) : S -> 0x(aa) at (0x6bc424) -- Size = (4) 

-- ISN: (88810) : L from (0x7fffffffecd0) -- of Size = (8) 

-- ISN: (88813) : L from (0x7fffffffecd8) -- of Size = (8) 

-- ISN: (88816) : L from (0x7fffffffece4) -- of Size = (4) 

-- ISN: (88830) : S -> 0x(77) at (0x7fffffffecd8) -- Size = (8) 

-- ISN: (88833) : S -> 0x(f0) at (0x7fffffffecd0) -- Size = (8) 

-- ISN: (88819) : S -> 0x(32) at (0x7fffffffece4) -- Size = (4) 

-- ISN: (88820) : L from (0x7fffffffece4) -- of Size = (4) 

-- ISN: (88826) : L from (0x7fffffffece4) -- of Size = (4) 

-- ISN: (88845) : S -> 0x(aa) at (0x6bc424) -- Size = (4) 

-- ISN: (88847) : L from (0x7fffffffecd0) -- of Size = (8) 

-- ISN: (88836) : S -> 0x(32) at (0x7fffffffeccc) -- Size = (4) 

-- ISN: (88838) : L from (0x7fffffffeccc) -- of Size = (4) 

-- ISN: (88850) : L from (0x7fffffffecd8) -- of Size = (8) 

-- ISN: (88853) : L from (0x7fffffffece4) -- of Size = (4) 

-- ISN: (88856) : S -> 0x(33) at (0x7fffffffece4) -- Size = (4) 

-- ISN: (88867) : S -> 0x(77) at (0x7fffffffecd8) -- Size = (8) 

-- ISN: (88870) : S -> 0x(f0) at (0x7fffffffecd0) -- Size = (8) 

-- ISN: (88857) : L from (0x7fffffffece4) -- of Size = (4) 

-- ISN: (88863) : L from (0x7fffffffece4) -- of Size = (4) 

-- ISN: (88873) : S -> 0x(33) at (0x7fffffffeccc) -- Size = (4) 

-- ISN: (88884) : L from (0x7fffffffecd0) -- of Size = (8) 

-- ISN: (88875) : L from (0x7fffffffeccc) -- of Size = (4) 

-- ISN: (88882) : S -> 0x(aa) at (0x6bc424) -- Size = (4) 

-- ISN: (88887) : L from (0x7fffffffecd8) -- of Size = (8) 

-- ISN: (88890) : L from (0x7fffffffece4) -- of Size = (4) 

-- ISN: (88893) : S -> 0x(34) at (0x7fffffffece4) -- Size = (4) 

-- ISN: (88904) : S -> 0x(77) at (0x7fffffffecd8) -- Size = (8) 

-- ISN: (88907) : S -> 0x(f0) at (0x7fffffffecd0) -- Size = (8) 

-- ISN: (88894) : L from (0x7fffffffece4) -- of Size = (4) 

-- ISN: (88900) : L from (0x7fffffffece4) -- of Size = (4) 

-- ISN: (88910) : S -> 0x(34) at (0x7fffffffeccc) -- Size = (4) 

-- ISN: (88912) : L from (0x7fffffffeccc) -- of Size = (4) 

-- ISN: (88919) : S -> 0x(aa) at (0x6bc424) -- Size = (4) 

-- ISN: (88921) : L from (0x7fffffffecd0) -- of Size = (8) 

-- ISN: (88924) : L from (0x7fffffffecd8) -- of Size = (8) 

-- ISN: (88927) : L from (0x7fffffffece4) -- of Size = (4) 

-- ISN: (88941) : S -> 0x(77) at (0x7fffffffecd8) -- Size = (8) 

-- ISN: (88944) : S -> 0x(f0) at (0x7fffffffecd0) -- Size = (8) 

-- ISN: (88930) : S -> 0x(35) at (0x7fffffffece4) -- Size = (4) 

-- ISN: (88931) : L from (0x7fffffffece4) -- of Size = (4) 

-- ISN: (88937) : L from (0x7fffffffece4) -- of Size = (4) 

-- ISN: (88956) : S -> 0x(aa) at (0x6bc424) -- Size = (4) 

-- ISN: (88958) : L from (0x7fffffffecd0) -- of Size = (8) 

-- ISN: (88947) : S -> 0x(35) at (0x7fffffffeccc) -- Size = (4) 

[...]

-- ISN: (89957) : L from (0x7fffffffecd0) -- of Size = (8) 

-- ISN: (89946) : S -> 0x(50) at (0x7fffffffeccc) -- Size = (4) 

-- ISN: (89948) : L from (0x7fffffffeccc) -- of Size = (4) 

-- ISN: (89960) : L from (0x7fffffffecd8) -- of Size = (8) 

-- ISN: (89963) : L from (0x7fffffffece4) -- of Size = (4) 

-- ISN: (89966) : S -> 0x(51) at (0x7fffffffece4) -- Size = (4) 

-- ISN: (89977) : S -> 0x(77) at (0x7fffffffecd8) -- Size = (8) 

-- ISN: (89980) : S -> 0x(f0) at (0x7fffffffecd0) -- Size = (8) 

-- ISN: (89967) : L from (0x7fffffffece4) -- of Size = (4) 

-- ISN: (89973) : L from (0x7fffffffece4) -- of Size = (4) 

-- ISN: (89983) : S -> 0x(51) at (0x7fffffffeccc) -- Size = (4) 

-- ISN: (89994) : L from (0x7fffffffecd0) -- of Size = (8) 

-- ISN: (89985) : L from (0x7fffffffeccc) -- of Size = (4) 

-- ISN: (89992) : S -> 0x(aa) at (0x6bc424) -- Size = (4) 

-- ISN: (89997) : L from (0x7fffffffecd8) -- of Size = (8) 

-- ISN: (90000) : L from (0x7fffffffece4) -- of Size = (4) 

-- ISN: (90003) : S -> 0x(52) at (0x7fffffffece4) -- Size = (4) 

-- ISN: (90014) : S -> 0x(77) at (0x7fffffffecd8) -- Size = (8) 

-- ISN: (90017) : S -> 0x(f0) at (0x7fffffffecd0) -- Size = (8) 

-- ISN: (90004) : L from (0x7fffffffece4) -- of Size = (4) 

-- ISN: (90010) : L from (0x7fffffffece4) -- of Size = (4) 

-- ISN: (90020) : S -> 0x(52) at (0x7fffffffeccc) -- Size = (4) 

-- ISN: (90022) : L from (0x7fffffffeccc) -- of Size = (4) 

-- ISN: (90029) : S -> 0x(aa) at (0x6bc424) -- Size = (4) 

-- ISN: (90031) : L from (0x7fffffffecd0) -- of Size = (8) 

-- ISN: (90034) : L from (0x7fffffffecd8) -- of Size = (8) 

-- ISN: (90037) : L from (0x7fffffffece4) -- of Size = (4) 

-- ISN: (90051) : S -> 0x(77) at (0x7fffffffecd8) -- Size = (8) 

-- ISN: (90054) : S -> 0x(f0) at (0x7fffffffecd0) -- Size = (8) 

-- ISN: (90040) : S -> 0x(53) at (0x7fffffffece4) -- Size = (4) 

-- ISN: (90041) : L from (0x7fffffffece4) -- of Size = (4) 

-- ISN: (90047) : L from (0x7fffffffece4) -- of Size = (4) 

-- ISN: (90066) : S -> 0x(aa) at (0x6bc424) -- Size = (4) 

-- ISN: (90068) : L from (0x7fffffffecd0) -- of Size = (8) 

-- ISN: (90057) : S -> 0x(53) at (0x7fffffffeccc) -- Size = (4) 

-- ISN: (90059) : L from (0x7fffffffeccc) -- of Size = (4) 

-- ISN: (90071) : L from (0x7fffffffecd8) -- of Size = (8) 

-- ISN: (90074) : L from (0x7fffffffece4) -- of Size = (4) 

-- ISN: (90077) : S -> 0x(54) at (0x7fffffffece4) -- Size = (4) 

-- ISN: (90088) : S -> 0x(77) at (0x7fffffffecd8) -- Size = (8) 

-- ISN: (90091) : S -> 0x(f0) at (0x7fffffffecd0) -- Size = (8) 

-- ISN: (90078) : L from (0x7fffffffece4) -- of Size = (4) 

-- ISN: (90084) : L from (0x7fffffffece4) -- of Size = (4) 

-- ISN: (90094) : S -> 0x(54) at (0x7fffffffeccc) -- Size = (4) 

-- ISN: (90105) : L from (0x7fffffffecd0) -- of Size = (8) 

-- ISN: (90096) : L from (0x7fffffffeccc) -- of Size = (4) 

-- ISN: (90103) : S -> 0x(aa) at (0x6bc424) -- Size = (4) 

-- ISN: (90108) : L from (0x7fffffffecd8) -- of Size = (8) 

-- ISN: (90111) : L from (0x7fffffffece4) -- of Size = (4) 

-- ISN: (90114) : S -> 0x(55) at (0x7fffffffece4) -- Size = (4) 

-- ISN: (90125) : S -> 0x(77) at (0x7fffffffecd8) -- Size = (8) 

-- ISN: (90128) : S -> 0x(f0) at (0x7fffffffecd0) -- Size = (8) 

-- ISN: (90115) : L from (0x7fffffffece4) -- of Size = (4) 

-- ISN: (90121) : L from (0x7fffffffece4) -- of Size = (4) 

-- ISN: (90131) : S -> 0x(55) at (0x7fffffffeccc) -- Size = (4) 

-- ISN: (90133) : L from (0x7fffffffeccc) -- of Size = (4) 

-- ISN: (90140) : S -> 0x(aa) at (0x6bc424) -- Size = (4) 

-- ISN: (90142) : L from (0x7fffffffecd0) -- of Size = (8) 

-- ISN: (90145) : L from (0x7fffffffecd8) -- of Size = (8) 

-- ISN: (90148) : L from (0x7fffffffece4) -- of Size = (4) 

-- ISN: (90162) : S -> 0x(77) at (0x7fffffffecd8) -- Size = (8) 

-- ISN: (90165) : S -> 0x(f0) at (0x7fffffffecd0) -- Size = (8) 

-- ISN: (90151) : S -> 0x(56) at (0x7fffffffece4) -- Size = (4) 

-- ISN: (90152) : L from (0x7fffffffece4) -- of Size = (4) 

-- ISN: (90158) : L from (0x7fffffffece4) -- of Size = (4) 

-- ISN: (90177) : S -> 0x(aa) at (0x6bc424) -- Size = (4) 

-- ISN: (90179) : L from (0x7fffffffecd0) -- of Size = (8) 

-- ISN: (90168) : S -> 0x(56) at (0x7fffffffeccc) -- Size = (4) 

-- ISN: (90170) : L from (0x7fffffffeccc) -- of Size = (4) 

-- ISN: (90182) : L from (0x7fffffffecd8) -- of Size = (8) 

-- ISN: (90185) : L from (0x7fffffffece4) -- of Size = (4) 

-- ISN: (90188) : S -> 0x(57) at (0x7fffffffece4) -- Size = (4) 

-- ISN: (90199) : S -> 0x(77) at (0x7fffffffecd8) -- Size = (8) 

-- ISN: (90202) : S -> 0x(f0) at (0x7fffffffecd0) -- Size = (8) 

-- ISN: (90189) : L from (0x7fffffffece4) -- of Size = (4) 

-- ISN: (90195) : L from (0x7fffffffece4) -- of Size = (4) 

-- ISN: (90205) : S -> 0x(57) at (0x7fffffffeccc) -- Size = (4) 

-- ISN: (90216) : L from (0x7fffffffecd0) -- of Size = (8) 

-- ISN: (90207) : L from (0x7fffffffeccc) -- of Size = (4) 

-- ISN: (90214) : S -> 0x(aa) at (0x6bc424) -- Size = (4) 

-- ISN: (90219) : L from (0x7fffffffecd8) -- of Size = (8) 

-- ISN: (90222) : L from (0x7fffffffece4) -- of Size = (4) 

-- ISN: (90225) : S -> 0x(58) at (0x7fffffffece4) -- Size = (4) 

-- ISN: (90236) : S -> 0x(77) at (0x7fffffffecd8) -- Size = (8) 

-- ISN: (90239) : S -> 0x(f0) at (0x7fffffffecd0) -- Size = (8) 

-- ISN: (90226) : L from (0x7fffffffece4) -- of Size = (4) 

-- ISN: (90232) : L from (0x7fffffffece4) -- of Size = (4) 

-- ISN: (90242) : S -> 0x(58) at (0x7fffffffeccc) -- Size = (4) 

-- ISN: (90244) : L from (0x7fffffffeccc) -- of Size = (4) 

-- ISN: (90251) : S -> 0x(aa) at (0x6bc424) -- Size = (4) 

-- ISN: (90253) : L from (0x7fffffffecd0) -- of Size = (8) 

-- ISN: (90256) : L from (0x7fffffffecd8) -- of Size = (8) 

-- ISN: (90259) : L from (0x7fffffffece4) -- of Size = (4) 

-- ISN: (90273) : S -> 0x(77) at (0x7fffffffecd8) -- Size = (8) 

-- ISN: (90276) : S -> 0x(f0) at (0x7fffffffecd0) -- Size = (8) 

-- ISN: (90262) : S -> 0x(59) at (0x7fffffffece4) -- Size = (4) 

-- ISN: (90263) : L from (0x7fffffffece4) -- of Size = (4) 

-- ISN: (90269) : L from (0x7fffffffece4) -- of Size = (4) 

-- ISN: (90288) : S -> 0x(aa) at (0x6bc424) -- Size = (4) 

-- ISN: (90290) : L from (0x7fffffffecd0) -- of Size = (8) 

-- ISN: (90279) : S -> 0x(59) at (0x7fffffffeccc) -- Size = (4) 

-- ISN: (90281) : L from (0x7fffffffeccc) -- of Size = (4) 

-- ISN: (90293) : L from (0x7fffffffecd8) -- of Size = (8) 

-- ISN: (90296) : L from (0x7fffffffece4) -- of Size = (4) 

-- ISN: (90299) : S -> 0x(5a) at (0x7fffffffece4) -- Size = (4) 

-- ISN: (90310) : S -> 0x(77) at (0x7fffffffecd8) -- Size = (8) 

-- ISN: (90313) : S -> 0x(f0) at (0x7fffffffecd0) -- Size = (8) 

-- ISN: (90300) : L from (0x7fffffffece4) -- of Size = (4) 

-- ISN: (90306) : L from (0x7fffffffece4) -- of Size = (4) 

-- ISN: (90316) : S -> 0x(5a) at (0x7fffffffeccc) -- Size = (4) 

-- ISN: (90327) : L from (0x7fffffffecd0) -- of Size = (8) 

-- ISN: (90318) : L from (0x7fffffffeccc) -- of Size = (4) 

-- ISN: (90325) : S -> 0x(aa) at (0x6bc424) -- Size = (4) 

-- ISN: (90330) : L from (0x7fffffffecd8) -- of Size = (8) 

-- ISN: (90333) : L from (0x7fffffffece4) -- of Size = (4) 

-- ISN: (90336) : S -> 0x(5b) at (0x7fffffffece4) -- Size = (4) 

-- ISN: (90347) : S -> 0x(77) at (0x7fffffffecd8) -- Size = (8) 

-- ISN: (90350) : S -> 0x(f0) at (0x7fffffffecd0) -- Size = (8) 

-- ISN: (90337) : L from (0x7fffffffece4) -- of Size = (4) 

-- ISN: (90343) : L from (0x7fffffffece4) -- of Size = (4) 

-- ISN: (90353) : S -> 0x(5b) at (0x7fffffffeccc) -- Size = (4) 

-- ISN: (90355) : L from (0x7fffffffeccc) -- of Size = (4) 

-- ISN: (90362) : S -> 0x(aa) at (0x6bc424) -- Size = (4) 

-- ISN: (90364) : L from (0x7fffffffecd0) -- of Size = (8) 

-- ISN: (90367) : L from (0x7fffffffecd8) -- of Size = (8) 

-- ISN: (90370) : L from (0x7fffffffece4) -- of Size = (4) 

-- ISN: (90384) : S -> 0x(77) at (0x7fffffffecd8) -- Size = (8) 

-- ISN: (90387) : S -> 0x(f0) at (0x7fffffffecd0) -- Size = (8) 

-- ISN: (90373) : S -> 0x(5c) at (0x7fffffffece4) -- Size = (4) 

-- ISN: (90374) : L from (0x7fffffffece4) -- of Size = (4) 

-- ISN: (90380) : L from (0x7fffffffece4) -- of Size = (4) 

-- ISN: (90399) : S -> 0x(aa) at (0x6bc424) -- Size = (4) 

-- ISN: (90401) : L from (0x7fffffffecd0) -- of Size = (8) 

-- ISN: (90390) : S -> 0x(5c) at (0x7fffffffeccc) -- Size = (4) 

-- ISN: (90392) : L from (0x7fffffffeccc) -- of Size = (4) 

-- ISN: (90404) : L from (0x7fffffffecd8) -- of Size = (8) 

-- ISN: (90407) : L from (0x7fffffffece4) -- of Size = (4) 

-- ISN: (90410) : S -> 0x(5d) at (0x7fffffffece4) -- Size = (4) 

-- ISN: (90421) : S -> 0x(77) at (0x7fffffffecd8) -- Size = (8) 

-- ISN: (90424) : S -> 0x(f0) at (0x7fffffffecd0) -- Size = (8) 

-- ISN: (90411) : L from (0x7fffffffece4) -- of Size = (4) 

-- ISN: (90417) : L from (0x7fffffffece4) -- of Size = (4) 

-- ISN: (90427) : S -> 0x(5d) at (0x7fffffffeccc) -- Size = (4) 

-- ISN: (90438) : L from (0x7fffffffecd0) -- of Size = (8) 

-- ISN: (90429) : L from (0x7fffffffeccc) -- of Size = (4) 

-- ISN: (90436) : S -> 0x(aa) at (0x6bc424) -- Size = (4) 

-- ISN: (90441) : L from (0x7fffffffecd8) -- of Size = (8) 

-- ISN: (90444) : L from (0x7fffffffece4) -- of Size = (4) 

-- ISN: (90447) : S -> 0x(5e) at (0x7fffffffece4) -- Size = (4) 

-- ISN: (90458) : S -> 0x(77) at (0x7fffffffecd8) -- Size = (8) 

-- ISN: (90461) : S -> 0x(f0) at (0x7fffffffecd0) -- Size = (8) 

-- ISN: (90448) : L from (0x7fffffffece4) -- of Size = (4) 

-- ISN: (90454) : L from (0x7fffffffece4) -- of Size = (4) 

-- ISN: (90464) : S -> 0x(5e) at (0x7fffffffeccc) -- Size = (4) 

-- ISN: (90466) : L from (0x7fffffffeccc) -- of Size = (4) 

-- ISN: (90473) : S -> 0x(aa) at (0x6bc424) -- Size = (4) 

-- ISN: (90475) : L from (0x7fffffffecd0) -- of Size = (8) 

-- ISN: (90478) : L from (0x7fffffffecd8) -- of Size = (8) 

-- ISN: (90481) : L from (0x7fffffffece4) -- of Size = (4) 

-- ISN: (90495) : S -> 0x(77) at (0x7fffffffecd8) -- Size = (8) 

-- ISN: (90498) : S -> 0x(f0) at (0x7fffffffecd0) -- Size = (8) 

-- ISN: (90484) : S -> 0x(5f) at (0x7fffffffece4) -- Size = (4) 

-- ISN: (90485) : L from (0x7fffffffece4) -- of Size = (4) 

-- ISN: (90491) : L from (0x7fffffffece4) -- of Size = (4) 

-- ISN: (90510) : S -> 0x(aa) at (0x6bc424) -- Size = (4) 

-- ISN: (90512) : L from (0x7fffffffecd0) -- of Size = (8) 

-- ISN: (90501) : S -> 0x(5f) at (0x7fffffffeccc) -- Size = (4) 

-- ISN: (90503) : L from (0x7fffffffeccc) -- of Size = (4) 

-- ISN: (90515) : L from (0x7fffffffecd8) -- of Size = (8) 

-- ISN: (90518) : L from (0x7fffffffece4) -- of Size = (4) 

-- ISN: (90521) : S -> 0x(60) at (0x7fffffffece4) -- Size = (4) 

-- ISN: (90532) : S -> 0x(77) at (0x7fffffffecd8) -- Size = (8) 

-- ISN: (90535) : S -> 0x(f0) at (0x7fffffffecd0) -- Size = (8) 

-- ISN: (90522) : L from (0x7fffffffece4) -- of Size = (4) 

-- ISN: (90528) : L from (0x7fffffffece4) -- of Size = (4) 

-- ISN: (90538) : S -> 0x(60) at (0x7fffffffeccc) -- Size = (4) 

-- ISN: (90549) : L from (0x7fffffffecd0) -- of Size = (8) 

-- ISN: (90540) : L from (0x7fffffffeccc) -- of Size = (4) 

-- ISN: (90547) : S -> 0x(aa) at (0x6bc424) -- Size = (4) 

-- ISN: (90552) : L from (0x7fffffffecd8) -- of Size = (8) 

-- ISN: (90555) : L from (0x7fffffffece4) -- of Size = (4) 

-- ISN: (90558) : S -> 0x(61) at (0x7fffffffece4) -- Size = (4) 

-- ISN: (90569) : S -> 0x(77) at (0x7fffffffecd8) -- Size = (8) 

-- ISN: (90572) : S -> 0x(f0) at (0x7fffffffecd0) -- Size = (8) 

-- ISN: (90559) : L from (0x7fffffffece4) -- of Size = (4) 

-- ISN: (90565) : L from (0x7fffffffece4) -- of Size = (4) 

-- ISN: (90575) : S -> 0x(61) at (0x7fffffffeccc) -- Size = (4) 

-- ISN: (90577) : L from (0x7fffffffeccc) -- of Size = (4) 

-- ISN: (90584) : S -> 0x(aa) at (0x6bc424) -- Size = (4) 

-- ISN: (90586) : L from (0x7fffffffecd0) -- of Size = (8) 

-- ISN: (90589) : L from (0x7fffffffecd8) -- of Size = (8) 

-- ISN: (90592) : L from (0x7fffffffece4) -- of Size = (4) 

-- ISN: (90606) : S -> 0x(77) at (0x7fffffffecd8) -- Size = (8) 

-- ISN: (90609) : S -> 0x(f0) at (0x7fffffffecd0) -- Size = (8) 

-- ISN: (90595) : S -> 0x(62) at (0x7fffffffece4) -- Size = (4) 

-- ISN: (90596) : L from (0x7fffffffece4) -- of Size = (4) 

-- ISN: (90602) : L from (0x7fffffffece4) -- of Size = (4) 

-- ISN: (90621) : S -> 0x(aa) at (0x6bc424) -- Size = (4) 

-- ISN: (90623) : L from (0x7fffffffecd0) -- of Size = (8) 

-- ISN: (90612) : S -> 0x(62) at (0x7fffffffeccc) -- Size = (4) 

-- ISN: (90614) : L from (0x7fffffffeccc) -- of Size = (4) 

-- ISN: (90626) : L from (0x7fffffffecd8) -- of Size = (8) 

-- ISN: (90629) : L from (0x7fffffffece4) -- of Size = (4) 

-- ISN: (90632) : S -> 0x(63) at (0x7fffffffece4) -- Size = (4) 

-- ISN: (90643) : S -> 0x(77) at (0x7fffffffecd8) -- Size = (8) 

-- ISN: (90646) : S -> 0x(f0) at (0x7fffffffecd0) -- Size = (8) 

-- ISN: (90633) : L from (0x7fffffffece4) -- of Size = (4) 

-- ISN: (90639) : L from (0x7fffffffece4) -- of Size = (4) 

-- ISN: (90649) : S -> 0x(63) at (0x7fffffffeccc) -- Size = (4) 

-- ISN: (90660) : L from (0x7fffffffecd0) -- of Size = (8) 

-- ISN: (90651) : L from (0x7fffffffeccc) -- of Size = (4) 

-- ISN: (90658) : S -> 0x(aa) at (0x6bc424) -- Size = (4) 

-- ISN: (90663) : L from (0x7fffffffecd8) -- of Size = (8) 

-- ISN: (90666) : L from (0x7fffffffece4) -- of Size = (4) 

-- ISN: (90669) : S -> 0x(64) at (0x7fffffffece4) -- Size = (4) 

-- ISN: (90680) : S -> 0x(77) at (0x7fffffffecd8) -- Size = (8) 

-- ISN: (90683) : S -> 0x(f0) at (0x7fffffffecd0) -- Size = (8) 

-- ISN: (90670) : L from (0x7fffffffece4) -- of Size = (4) 

-- ISN: (90676) : L from (0x7fffffffece4) -- of Size = (4) 

-- ISN: (90686) : S -> 0x(64) at (0x7fffffffeccc) -- Size = (4) 

-- ISN: (90688) : L from (0x7fffffffeccc) -- of Size = (4) 

-- ISN: (90695) : S -> 0x(aa) at (0x6bc424) -- Size = (4) 

-- ISN: (90697) : L from (0x7fffffffecd0) -- of Size = (8) 

-- Sqsh -> ISN (90675)

-- ISN: (90747) : S -> 0x(92) at (0x7fffffffecd8) -- Size = (8) 

-- ISN: (90751) : S -> 0x(0) at (0x7fffffffece0) -- Size = (4) 

-- ISN: (90755) : L from (0x7fffffffece0) -- of Size = (4) 

-- ISN: (90759) : L from (0x7fffffffece0) -- of Size = (4) 

-- Sqsh -> ISN (90749)

-- ISN: (90797) : S -> 0x(f0) at (0x7fffffffecd0) -- Size = (8) 

-- ISN: (90800) : S -> 0x(69) at (0x7fffffffeccc) -- Size = (4) 

-- ISN: (90811) : L from (0x7fffffffecd0) -- of Size = (8) 

-- ISN: (90802) : L from (0x7fffffffeccc) -- of Size = (4) 

-- ISN: (90809) : S -> 0x(aa) at (0x6bc424) -- Size = (4) 

-- ISN: (90814) : L from (0x7fffffffecd8) -- of Size = (8) 

-- ISN: (90818) : S -> 0x(0) at (0x7fffffffece0) -- Size = (4) 

-- ISN: (90822) : L from (0x7fffffffece0) -- of Size = (4) 

-- ISN: (90826) : L from (0x7fffffffece0) -- of Size = (4) 

-- Sqsh -> ISN (90821)

-- Sqsh -> ISN (90806)

-- ISN: (90865) : L from (0x7fffffffecd0) -- of Size = (8) 

-- ISN: (90868) : L from (0x7fffffffecd8) -- of Size = (8) 

-- ISN: (90872) : S -> 0x(0) at (0x7fffffffece0) -- Size = (4) 

-- ISN: (90876) : L from (0x7fffffffece0) -- of Size = (4) 

-- ISN: (90880) : L from (0x7fffffffece0) -- of Size = (4) 

-- ISN: (90893) : L from (0x7fffffffece8) -- of Size = (8) 

-- ISN: (90894) : L from (0x6bd8a8) -- of Size = (8) 

-- Sqsh -> ISN (90875)

-- ISN: (90920) : L from (0x7fffffffece0) -- of Size = (4) 

-- ISN: (90933) : L from (0x7fffffffece8) -- of Size = (8) 

-- ISN: (90934) : L from (0x6bd8a8) -- of Size = (8) 

-- ISN: (90929) : S -> 0x(b6) at (0x7fffffffecd8) -- Size = (8) 

-- ISN: (90941) : S -> 0x(cf) at (0x7fffffffecd0) -- Size = (8) 

-- Sqsh -> ISN (90925)

-- ISN: (90976) : L from (0x7fffffffece0) -- of Size = (4) 

-- ISN: (90980) : L from (0x7fffffffece0) -- of Size = (4) 

-- ISN: (90989) : S -> 0x(b6) at (0x7fffffffecd8) -- Size = (8) 

-- ISN: (90993) : L from (0x7fffffffece8) -- of Size = (8) 

-- ISN: (90994) : L from (0x6bd8a8) -- of Size = (8) 

-- ISN: (90979) : S -> 0x(1) at (0x7fffffffece0) -- Size = (4) 

-- Sqsh -> ISN (90991)

-- Sqsh -> ISN (90979)

-- ISN: (91028) : L from (0x7fffffffece0) -- of Size = (4) 

-- ISN: (91037) : S -> 0x(b6) at (0x7fffffffecd8) -- Size = (8) 

-- ISN: (91041) : L from (0x7fffffffecd8) -- of Size = (8) 

-- ISN: (91045) : L from (0x7fffffffece8) -- of Size = (8) 

-- ISN: (91046) : L from (0x6bd8a8) -- of Size = (8) 

-- ISN: (91053) : S -> 0x(cf) at (0x7fffffffecd8) -- Size = (8) 

-- Sqsh -> ISN (91033)

-- ISN: (91070) : L from (0x7fffffffece0) -- of Size = (4) 

-- ISN: (91083) : S -> 0x(b6) at (0x7fffffffecd8) -- Size = (8) 

-- ISN: (91087) : L from (0x7fffffffece8) -- of Size = (8) 

-- ISN: (91088) : L from (0x6bd8a8) -- of Size = (8) 

-- ISN: (91073) : S -> 0x(2) at (0x7fffffffece0) -- Size = (4) 

-- Sqsh -> ISN (91085)

-- ISN: (91074) : L from (0x7fffffffece0) -- of Size = (4) 

-- Sqsh -> ISN (91079)

-- ISN: (91126) : L from (0x7fffffffece0) -- of Size = (4) 

-- ISN: (91139) : S -> 0x(b6) at (0x7fffffffecd8) -- Size = (8) 

-- ISN: (91129) : S -> 0x(3) at (0x7fffffffece0) -- Size = (4) 

-- Sqsh -> ISN (91141)

-- ISN: (91130) : L from (0x7fffffffece0) -- of Size = (4) 

-- Sqsh -> ISN (91135)

-- ISN: (91182) : L from (0x7fffffffece0) -- of Size = (4) 

-- ISN: (91195) : S -> 0x(b6) at (0x7fffffffecd8) -- Size = (8) 

-- ISN: (91185) : S -> 0x(4) at (0x7fffffffece0) -- Size = (4) 

-- ISN: (91199) : L from (0x7fffffffecd8) -- of Size = (8) 

-- ISN: (91186) : L from (0x7fffffffece0) -- of Size = (4) 

-- ISN: (91203) : L from (0x7fffffffece8) -- of Size = (8) 

-- ISN: (91204) : L from (0x6bd8a8) -- of Size = (8) 

-- ISN: (91211) : S -> 0x(cf) at (0x7fffffffecd8) -- Size = (8) 

-- ISN: (91215) : L from (0x7fffffffecf0) -- of Size = (8) 

-- Sqsh -> ISN (91191)

-- ISN: (91228) : L from (0x7fffffffece0) -- of Size = (4) 

-- ISN: (91238) : L from (0x7fffffffece0) -- of Size = (4) 

-- ISN: (91248) : L from (0x7fffffffece0) -- of Size = (4) 

-- ISN: (91231) : S -> 0x(5) at (0x7fffffffece0) -- Size = (4) 

-- ISN: (91258) : L from (0x7fffffffece0) -- of Size = (4) 

-- ISN: (91232) : L from (0x7fffffffece0) -- of Size = (4) 

-- Sqsh -> ISN (91237)

-- ISN: (91298) : L from (0x7fffffffece0) -- of Size = (4) 

-- ISN: (91302) : L from (0x7fffffffece0) -- of Size = (4) 

-- ISN: (91312) : L from (0x7fffffffece0) -- of Size = (4) 

-- ISN: (91301) : S -> 0x(6) at (0x7fffffffece0) -- Size = (4) 

-- ISN: (91308) : L from (0x7fffffffece0) -- of Size = (4) 

-- ISN: (91322) : L from (0x7fffffffece0) -- of Size = (4) 

-- Sqsh -> ISN (91301)

-- ISN: (91368) : L from (0x7fffffffece0) -- of Size = (4) 

-- ISN: (91374) : L from (0x7fffffffece0) -- of Size = (4) 

-- ISN: (91377) : S -> 0x(7) at (0x7fffffffece0) -- Size = (4) 

-- ISN: (91378) : L from (0x7fffffffece0) -- of Size = (4) 

-- ISN: (91384) : L from (0x7fffffffece0) -- of Size = (4) 

-- ISN: (91387) : S -> 0x(8) at (0x7fffffffece0) -- Size = (4) 

-- ISN: (91388) : L from (0x7fffffffece0) -- of Size = (4) 

-- ISN: (91394) : L from (0x7fffffffece0) -- of Size = (4) 

-- ISN: (91397) : S -> 0x(9) at (0x7fffffffece0) -- Size = (4) 

-- ISN: (91398) : L from (0x7fffffffece0) -- of Size = (4) 

-- ISN: (91404) : L from (0x7fffffffece0) -- of Size = (4) 

-- ISN: (91407) : S -> 0x(a) at (0x7fffffffece0) -- Size = (4) 

-- ISN: (91408) : L from (0x7fffffffece0) -- of Size = (4) 

-- ISN: (91414) : L from (0x7fffffffece0) -- of Size = (4) 

-- ISN: (91417) : S -> 0x(b) at (0x7fffffffece0) -- Size = (4) 

-- ISN: (91418) : L from (0x7fffffffece0) -- of Size = (4) 

-- ISN: (91424) : L from (0x7fffffffece0) -- of Size = (4) 

-- Sqsh -> ISN (91413)

-- ISN: (91531) : L from (0x7fffffffece8) -- of Size = (8) 

-- ISN: (91527) : S -> 0x(b6) at (0x7fffffffecd8) -- Size = (8) 

-- Sqsh -> ISN (91529)

-- ISN: (91583) : L from (0x7fffffffecd8) -- of Size = (8) 

HERE 2 : enable_memreq_tracing = 0
Exiting @ tick 37798000 because exiting with last active thread context
