gem5 Simulator System.  http://gem5.org
gem5 is copyrighted software; use the --copyright option for details.

gem5 compiled Mar  4 2020 16:30:09
gem5 started Mar  4 2020 18:22:54
gem5 executing on tarun-s, pid 28979
command line: build/X86/gem5.opt configs/example/se.py --cmd=./tests/my_progs/spectre_test_2 --cpu-type=DerivO3CPU --caches --mem-size=4GB --l1d_size=32kB --l1i_size=32kB --l1d_assoc=4 --l1i_assoc=4 --cacheline_size=64

Global frequency set at 1000000000000 ticks per second
**** REAL SIMULATION ****

Address of a1_len = 0x6b90f0 

Address of i = 0x7fffffffed10 

Address of j = 0x7fffffffed14 

Address of x = 0x6bc3a0 

Address of y = 0x6bc424 

Address of array1 = 0x6bc440 

Address of array2 = 0x6bc3c0 

Address of array3 = 0x6bc5e0 
HERE 1 : enable_memreq_tracing = 1
-- Tick (33123500) -- ISN: (87895) : L from (0x7fffffffed10) -- of Size = (4) -- vaddr (0x7fffffffed10) -- paddr (0x4bdd10) 

-- Tick (33124000) -- ISN: (87906) : L from (0x7fffffffed14) -- of Size = (4) -- vaddr (0x7fffffffed14) -- paddr (0x4bdd14) 

-- Tick (33124500) -- ISN: (87890) : S -> 0x(0) at (0x6bc440) -- Size = (4) -- vaddr (0x6bc440) -- paddr (0xbc440) 

-- Tick (33124500) -- ISN: (87894) : S -> 0x(1) at (0x7fffffffed10) -- Size = (4) -- vaddr (0x7fffffffed10) -- paddr (0x4bdd10) 

-- Tick (33124500) -- ISN: (87902) : S -> 0x(0) at (0x7fffffffed14) -- Size = (4) -- vaddr (0x7fffffffed14) -- paddr (0x4bdd14) 

-- Tick (33125000) -- ISN: (87910) : S -> 0x(c2) at (0x7fffffffed08) -- Size = (8) -- vaddr (0x7fffffffed08) -- paddr (0x4bdd08) 

-- Tick (33125000) -- ISN: (87913) : L from (0x7fffffffed14) -- of Size = (4) -- vaddr (0x7fffffffed14) -- paddr (0x4bdd14) 

-- Sqsh -> ISN (87894)

-- Tick (33131000) -- ISN: (87945) : L from (0x7fffffffed10) -- of Size = (4) -- vaddr (0x7fffffffed10) -- paddr (0x4bdd10) 

-- Tick (33131500) -- ISN: (87952) : S -> 0x(0) at (0x7fffffffed14) -- Size = (4) -- vaddr (0x7fffffffed14) -- paddr (0x4bdd14) 

-- Tick (33132000) -- ISN: (87956) : L from (0x7fffffffed14) -- of Size = (4) -- vaddr (0x7fffffffed14) -- paddr (0x4bdd14) 

-- Tick (33132500) -- ISN: (87960) : S -> 0x(c2) at (0x7fffffffed08) -- Size = (8) -- vaddr (0x7fffffffed08) -- paddr (0x4bdd08) 

-- Tick (33132500) -- ISN: (87963) : L from (0x7fffffffed14) -- of Size = (4) -- vaddr (0x7fffffffed14) -- paddr (0x4bdd14) 

-- Sqsh -> ISN (87950)

-- Tick (33139000) -- ISN: (87995) : L from (0x7fffffffed10) -- of Size = (4) -- vaddr (0x7fffffffed10) -- paddr (0x4bdd10) 

-- Tick (33139000) -- ISN: (87996) : L from (0x7fffffffed10) -- of Size = (4) -- vaddr (0x7fffffffed10) -- paddr (0x4bdd10) 

-- Tick (33139000) -- ISN: (88002) : L from (0x7fffffffed10) -- of Size = (4) -- vaddr (0x7fffffffed10) -- paddr (0x4bdd10) 

-- Tick (33140500) -- ISN: (88017) : L from (0x7fffffffed14) -- of Size = (4) -- vaddr (0x7fffffffed14) -- paddr (0x4bdd14) 

-- Tick (33141000) -- ISN: (88001) : S -> 0x(1) at (0x6bc444) -- Size = (4) -- vaddr (0x6bc444) -- paddr (0xbc444) 

-- Tick (33141000) -- ISN: (88005) : S -> 0x(2) at (0x7fffffffed10) -- Size = (4) -- vaddr (0x7fffffffed10) -- paddr (0x4bdd10) 

-- Tick (33141000) -- ISN: (88013) : S -> 0x(0) at (0x7fffffffed14) -- Size = (4) -- vaddr (0x7fffffffed14) -- paddr (0x4bdd14) 

-- Tick (33141000) -- ISN: (88024) : L from (0x7fffffffed14) -- of Size = (4) -- vaddr (0x7fffffffed14) -- paddr (0x4bdd14) 

-- Tick (33141500) -- ISN: (88006) : L from (0x7fffffffed10) -- of Size = (4) -- vaddr (0x7fffffffed10) -- paddr (0x4bdd10) 

-- Tick (33141500) -- ISN: (88021) : S -> 0x(c2) at (0x7fffffffed08) -- Size = (8) -- vaddr (0x7fffffffed08) -- paddr (0x4bdd08) 

-- Sqsh -> ISN (88016)

-- Sqsh -> ISN (88011)

-- Tick (33149500) -- ISN: (88072) : L from (0x7fffffffed10) -- of Size = (4) -- vaddr (0x7fffffffed10) -- paddr (0x4bdd10) 

-- Tick (33149500) -- ISN: (88073) : L from (0x7fffffffed10) -- of Size = (4) -- vaddr (0x7fffffffed10) -- paddr (0x4bdd10) 

-- Tick (33149500) -- ISN: (88079) : L from (0x7fffffffed10) -- of Size = (4) -- vaddr (0x7fffffffed10) -- paddr (0x4bdd10) 

-- Tick (33151500) -- ISN: (88078) : S -> 0x(2) at (0x6bc448) -- Size = (4) -- vaddr (0x6bc448) -- paddr (0xbc448) 

-- Tick (33151500) -- ISN: (88082) : S -> 0x(3) at (0x7fffffffed10) -- Size = (4) -- vaddr (0x7fffffffed10) -- paddr (0x4bdd10) 

-- Tick (33151500) -- ISN: (88101) : L from (0x7fffffffed14) -- of Size = (4) -- vaddr (0x7fffffffed14) -- paddr (0x4bdd14) 

-- Tick (33152000) -- ISN: (88083) : L from (0x7fffffffed10) -- of Size = (4) -- vaddr (0x7fffffffed10) -- paddr (0x4bdd10) 

-- Tick (33152000) -- ISN: (88090) : S -> 0x(0) at (0x7fffffffed14) -- Size = (4) -- vaddr (0x7fffffffed14) -- paddr (0x4bdd14) 

-- Tick (33152000) -- ISN: (88098) : S -> 0x(c2) at (0x7fffffffed08) -- Size = (8) -- vaddr (0x7fffffffed08) -- paddr (0x4bdd08) 

-- Sqsh -> ISN (88093)

-- Sqsh -> ISN (88088)

-- Tick (33159500) -- ISN: (88141) : L from (0x7fffffffed10) -- of Size = (4) -- vaddr (0x7fffffffed10) -- paddr (0x4bdd10) 

-- Tick (33159500) -- ISN: (88142) : L from (0x7fffffffed10) -- of Size = (4) -- vaddr (0x7fffffffed10) -- paddr (0x4bdd10) 

-- Tick (33159500) -- ISN: (88148) : L from (0x7fffffffed10) -- of Size = (4) -- vaddr (0x7fffffffed10) -- paddr (0x4bdd10) 

-- Tick (33161000) -- ISN: (88163) : L from (0x7fffffffed14) -- of Size = (4) -- vaddr (0x7fffffffed14) -- paddr (0x4bdd14) 

-- Tick (33161500) -- ISN: (88147) : S -> 0x(3) at (0x6bc44c) -- Size = (4) -- vaddr (0x6bc44c) -- paddr (0xbc44c) 

-- Tick (33161500) -- ISN: (88151) : S -> 0x(4) at (0x7fffffffed10) -- Size = (4) -- vaddr (0x7fffffffed10) -- paddr (0x4bdd10) 

-- Tick (33162000) -- ISN: (88152) : L from (0x7fffffffed10) -- of Size = (4) -- vaddr (0x7fffffffed10) -- paddr (0x4bdd10) 

-- Tick (33162000) -- ISN: (88159) : S -> 0x(0) at (0x7fffffffed14) -- Size = (4) -- vaddr (0x7fffffffed14) -- paddr (0x4bdd14) 

-- Tick (33162000) -- ISN: (88180) : L from (0x7fffffffed10) -- of Size = (4) -- vaddr (0x7fffffffed10) -- paddr (0x4bdd10) 

-- Sqsh -> ISN (88162)

-- Sqsh -> ISN (88157)

-- Tick (33170500) -- ISN: (88199) : L from (0x7fffffffed10) -- of Size = (4) -- vaddr (0x7fffffffed10) -- paddr (0x4bdd10) 

-- Tick (33170500) -- ISN: (88200) : L from (0x7fffffffed10) -- of Size = (4) -- vaddr (0x7fffffffed10) -- paddr (0x4bdd10) 

-- Tick (33170500) -- ISN: (88206) : L from (0x7fffffffed10) -- of Size = (4) -- vaddr (0x7fffffffed10) -- paddr (0x4bdd10) 

-- Tick (33171500) -- ISN: (88216) : L from (0x7fffffffed10) -- of Size = (4) -- vaddr (0x7fffffffed10) -- paddr (0x4bdd10) 

-- Tick (33171500) -- ISN: (88217) : L from (0x7fffffffed10) -- of Size = (4) -- vaddr (0x7fffffffed10) -- paddr (0x4bdd10) 

-- Tick (33172000) -- ISN: (88209) : S -> 0x(5) at (0x7fffffffed10) -- Size = (4) -- vaddr (0x7fffffffed10) -- paddr (0x4bdd10) 

-- Tick (33172000) -- ISN: (88223) : L from (0x7fffffffed10) -- of Size = (4) -- vaddr (0x7fffffffed10) -- paddr (0x4bdd10) 

-- Tick (33172500) -- ISN: (88205) : S -> 0x(4) at (0x6bc450) -- Size = (4) -- vaddr (0x6bc450) -- paddr (0xbc450) 

-- Tick (33172500) -- ISN: (88210) : L from (0x7fffffffed10) -- of Size = (4) -- vaddr (0x7fffffffed10) -- paddr (0x4bdd10) 

-- Tick (33172500) -- ISN: (88233) : L from (0x7fffffffed10) -- of Size = (4) -- vaddr (0x7fffffffed10) -- paddr (0x4bdd10) 

-- Tick (33172500) -- ISN: (88234) : L from (0x7fffffffed10) -- of Size = (4) -- vaddr (0x7fffffffed10) -- paddr (0x4bdd10) 

-- Sqsh -> ISN (88215)

-- Tick (33177000) -- ISN: (88275) : L from (0x7fffffffed10) -- of Size = (4) -- vaddr (0x7fffffffed10) -- paddr (0x4bdd10) 

-- Tick (33177000) -- ISN: (88276) : L from (0x7fffffffed10) -- of Size = (4) -- vaddr (0x7fffffffed10) -- paddr (0x4bdd10) 

-- Tick (33177000) -- ISN: (88282) : L from (0x7fffffffed10) -- of Size = (4) -- vaddr (0x7fffffffed10) -- paddr (0x4bdd10) 

-- Tick (33179000) -- ISN: (88281) : S -> 0x(5) at (0x6bc454) -- Size = (4) -- vaddr (0x6bc454) -- paddr (0xbc454) 

-- Tick (33179000) -- ISN: (88285) : S -> 0x(6) at (0x7fffffffed10) -- Size = (4) -- vaddr (0x7fffffffed10) -- paddr (0x4bdd10) 

-- Tick (33179500) -- ISN: (88286) : L from (0x7fffffffed10) -- of Size = (4) -- vaddr (0x7fffffffed10) -- paddr (0x4bdd10) 

-- Tick (33179500) -- ISN: (88292) : L from (0x7fffffffed10) -- of Size = (4) -- vaddr (0x7fffffffed10) -- paddr (0x4bdd10) 

-- Tick (33179500) -- ISN: (88293) : L from (0x7fffffffed10) -- of Size = (4) -- vaddr (0x7fffffffed10) -- paddr (0x4bdd10) 

-- Tick (33179500) -- ISN: (88299) : L from (0x7fffffffed10) -- of Size = (4) -- vaddr (0x7fffffffed10) -- paddr (0x4bdd10) 

-- Tick (33181000) -- ISN: (88302) : S -> 0x(7) at (0x7fffffffed10) -- Size = (4) -- vaddr (0x7fffffffed10) -- paddr (0x4bdd10) 

-- Tick (33181000) -- ISN: (88316) : L from (0x7fffffffed10) -- of Size = (4) -- vaddr (0x7fffffffed10) -- paddr (0x4bdd10) 

-- Tick (33181500) -- ISN: (88298) : S -> 0x(6) at (0x6bc458) -- Size = (4) -- vaddr (0x6bc458) -- paddr (0xbc458) 

-- Tick (33181500) -- ISN: (88303) : L from (0x7fffffffed10) -- of Size = (4) -- vaddr (0x7fffffffed10) -- paddr (0x4bdd10) 

-- Tick (33181500) -- ISN: (88309) : L from (0x7fffffffed10) -- of Size = (4) -- vaddr (0x7fffffffed10) -- paddr (0x4bdd10) 

-- Tick (33181500) -- ISN: (88310) : L from (0x7fffffffed10) -- of Size = (4) -- vaddr (0x7fffffffed10) -- paddr (0x4bdd10) 

-- Tick (33182000) -- ISN: (88333) : L from (0x7fffffffed10) -- of Size = (4) -- vaddr (0x7fffffffed10) -- paddr (0x4bdd10) 

-- Tick (33182500) -- ISN: (88319) : S -> 0x(8) at (0x7fffffffed10) -- Size = (4) -- vaddr (0x7fffffffed10) -- paddr (0x4bdd10) 

-- Tick (33183000) -- ISN: (88320) : L from (0x7fffffffed10) -- of Size = (4) -- vaddr (0x7fffffffed10) -- paddr (0x4bdd10) 

-- Tick (33183000) -- ISN: (88326) : L from (0x7fffffffed10) -- of Size = (4) -- vaddr (0x7fffffffed10) -- paddr (0x4bdd10) 

-- Tick (33183000) -- ISN: (88327) : L from (0x7fffffffed10) -- of Size = (4) -- vaddr (0x7fffffffed10) -- paddr (0x4bdd10) 

-- Tick (33183000) -- ISN: (88350) : L from (0x7fffffffed10) -- of Size = (4) -- vaddr (0x7fffffffed10) -- paddr (0x4bdd10) 

-- Sqsh -> ISN (88332)

-- Tick (33183500) -- ISN: (88315) : S -> 0x(7) at (0x6bc45c) -- Size = (4) -- vaddr (0x6bc45c) -- paddr (0xbc45c) 

-- Tick (33185000) -- ISN: (88332) : S -> 0x(8) at (0x6bc460) -- Size = (4) -- vaddr (0x6bc460) -- paddr (0xbc460) 

-- Tick (33187500) -- ISN: (88393) : L from (0x7fffffffed10) -- of Size = (4) -- vaddr (0x7fffffffed10) -- paddr (0x4bdd10) 

-- Tick (33189000) -- ISN: (88396) : S -> 0x(9) at (0x7fffffffed10) -- Size = (4) -- vaddr (0x7fffffffed10) -- paddr (0x4bdd10) 

-- Tick (33189500) -- ISN: (88397) : L from (0x7fffffffed10) -- of Size = (4) -- vaddr (0x7fffffffed10) -- paddr (0x4bdd10) 

-- Tick (33189500) -- ISN: (88403) : L from (0x7fffffffed10) -- of Size = (4) -- vaddr (0x7fffffffed10) -- paddr (0x4bdd10) 

-- Tick (33189500) -- ISN: (88404) : L from (0x7fffffffed10) -- of Size = (4) -- vaddr (0x7fffffffed10) -- paddr (0x4bdd10) 

-- Tick (33189500) -- ISN: (88410) : L from (0x7fffffffed10) -- of Size = (4) -- vaddr (0x7fffffffed10) -- paddr (0x4bdd10) 

-- Tick (33191000) -- ISN: (88413) : S -> 0x(a) at (0x7fffffffed10) -- Size = (4) -- vaddr (0x7fffffffed10) -- paddr (0x4bdd10) 

-- Tick (33191500) -- ISN: (88409) : S -> 0x(9) at (0x6bc464) -- Size = (4) -- vaddr (0x6bc464) -- paddr (0xbc464) 

-- Tick (33191500) -- ISN: (88414) : L from (0x7fffffffed10) -- of Size = (4) -- vaddr (0x7fffffffed10) -- paddr (0x4bdd10) 

-- Tick (33191500) -- ISN: (88420) : L from (0x7fffffffed10) -- of Size = (4) -- vaddr (0x7fffffffed10) -- paddr (0x4bdd10) 

-- Tick (33191500) -- ISN: (88421) : L from (0x7fffffffed10) -- of Size = (4) -- vaddr (0x7fffffffed10) -- paddr (0x4bdd10) 

-- Tick (33192000) -- ISN: (88427) : L from (0x7fffffffed10) -- of Size = (4) -- vaddr (0x7fffffffed10) -- paddr (0x4bdd10) 

-- Tick (33193500) -- ISN: (88426) : S -> 0x(a) at (0x6bc468) -- Size = (4) -- vaddr (0x6bc468) -- paddr (0xbc468) 

-- Tick (33193500) -- ISN: (88430) : S -> 0x(b) at (0x7fffffffed10) -- Size = (4) -- vaddr (0x7fffffffed10) -- paddr (0x4bdd10) 

-- Tick (33194000) -- ISN: (88431) : L from (0x7fffffffed10) -- of Size = (4) -- vaddr (0x7fffffffed10) -- paddr (0x4bdd10) 

-- Tick (33194000) -- ISN: (88437) : L from (0x7fffffffed10) -- of Size = (4) -- vaddr (0x7fffffffed10) -- paddr (0x4bdd10) 

-- Tick (33194000) -- ISN: (88438) : L from (0x7fffffffed10) -- of Size = (4) -- vaddr (0x7fffffffed10) -- paddr (0x4bdd10) 

-- Tick (33194000) -- ISN: (88444) : L from (0x7fffffffed10) -- of Size = (4) -- vaddr (0x7fffffffed10) -- paddr (0x4bdd10) 

-- Tick (33195500) -- ISN: (88447) : S -> 0x(c) at (0x7fffffffed10) -- Size = (4) -- vaddr (0x7fffffffed10) -- paddr (0x4bdd10) 

-- Tick (33196000) -- ISN: (88443) : S -> 0x(b) at (0x6bc46c) -- Size = (4) -- vaddr (0x6bc46c) -- paddr (0xbc46c) 

-- Tick (33196000) -- ISN: (88448) : L from (0x7fffffffed10) -- of Size = (4) -- vaddr (0x7fffffffed10) -- paddr (0x4bdd10) 

-- Tick (33196000) -- ISN: (88454) : L from (0x7fffffffed10) -- of Size = (4) -- vaddr (0x7fffffffed10) -- paddr (0x4bdd10) 

-- Tick (33196000) -- ISN: (88455) : L from (0x7fffffffed10) -- of Size = (4) -- vaddr (0x7fffffffed10) -- paddr (0x4bdd10) 

-- Tick (33196500) -- ISN: (88461) : L from (0x7fffffffed10) -- of Size = (4) -- vaddr (0x7fffffffed10) -- paddr (0x4bdd10) 

-- Tick (33198000) -- ISN: (88460) : S -> 0x(c) at (0x6bc470) -- Size = (4) -- vaddr (0x6bc470) -- paddr (0xbc470) 

-- Tick (33198000) -- ISN: (88464) : S -> 0x(d) at (0x7fffffffed10) -- Size = (4) -- vaddr (0x7fffffffed10) -- paddr (0x4bdd10) 

-- Tick (33198500) -- ISN: (88465) : L from (0x7fffffffed10) -- of Size = (4) -- vaddr (0x7fffffffed10) -- paddr (0x4bdd10) 

-- Tick (33198500) -- ISN: (88471) : L from (0x7fffffffed10) -- of Size = (4) -- vaddr (0x7fffffffed10) -- paddr (0x4bdd10) 

-- Tick (33198500) -- ISN: (88472) : L from (0x7fffffffed10) -- of Size = (4) -- vaddr (0x7fffffffed10) -- paddr (0x4bdd10) 

-- Tick (33198500) -- ISN: (88478) : L from (0x7fffffffed10) -- of Size = (4) -- vaddr (0x7fffffffed10) -- paddr (0x4bdd10) 

-- Tick (33200000) -- ISN: (88481) : S -> 0x(e) at (0x7fffffffed10) -- Size = (4) -- vaddr (0x7fffffffed10) -- paddr (0x4bdd10) 

-- Tick (33200500) -- ISN: (88477) : S -> 0x(d) at (0x6bc474) -- Size = (4) -- vaddr (0x6bc474) -- paddr (0xbc474) 

-- Tick (33200500) -- ISN: (88482) : L from (0x7fffffffed10) -- of Size = (4) -- vaddr (0x7fffffffed10) -- paddr (0x4bdd10) 

-- Tick (33200500) -- ISN: (88488) : L from (0x7fffffffed10) -- of Size = (4) -- vaddr (0x7fffffffed10) -- paddr (0x4bdd10) 

-- Tick (33200500) -- ISN: (88489) : L from (0x7fffffffed10) -- of Size = (4) -- vaddr (0x7fffffffed10) -- paddr (0x4bdd10) 

-- Tick (33201000) -- ISN: (88495) : L from (0x7fffffffed10) -- of Size = (4) -- vaddr (0x7fffffffed10) -- paddr (0x4bdd10) 

-- Tick (33202500) -- ISN: (88494) : S -> 0x(e) at (0x6bc478) -- Size = (4) -- vaddr (0x6bc478) -- paddr (0xbc478) 

-- Tick (33202500) -- ISN: (88498) : S -> 0x(f) at (0x7fffffffed10) -- Size = (4) -- vaddr (0x7fffffffed10) -- paddr (0x4bdd10) 

-- Tick (33203000) -- ISN: (88499) : L from (0x7fffffffed10) -- of Size = (4) -- vaddr (0x7fffffffed10) -- paddr (0x4bdd10) 

-- Tick (33203000) -- ISN: (88505) : L from (0x7fffffffed10) -- of Size = (4) -- vaddr (0x7fffffffed10) -- paddr (0x4bdd10) 

-- Tick (33203000) -- ISN: (88506) : L from (0x7fffffffed10) -- of Size = (4) -- vaddr (0x7fffffffed10) -- paddr (0x4bdd10) 

-- Tick (33203000) -- ISN: (88512) : L from (0x7fffffffed10) -- of Size = (4) -- vaddr (0x7fffffffed10) -- paddr (0x4bdd10) 

-- Tick (33204500) -- ISN: (88515) : S -> 0x(10) at (0x7fffffffed10) -- Size = (4) -- vaddr (0x7fffffffed10) -- paddr (0x4bdd10) 

-- Tick (33205000) -- ISN: (88511) : S -> 0x(f) at (0x6bc47c) -- Size = (4) -- vaddr (0x6bc47c) -- paddr (0xbc47c) 

-- Tick (33205000) -- ISN: (88516) : L from (0x7fffffffed10) -- of Size = (4) -- vaddr (0x7fffffffed10) -- paddr (0x4bdd10) 

-- Tick (33205000) -- ISN: (88522) : L from (0x7fffffffed10) -- of Size = (4) -- vaddr (0x7fffffffed10) -- paddr (0x4bdd10) 

-- Tick (33205000) -- ISN: (88523) : L from (0x7fffffffed10) -- of Size = (4) -- vaddr (0x7fffffffed10) -- paddr (0x4bdd10) 

-- Tick (33205500) -- ISN: (88529) : L from (0x7fffffffed10) -- of Size = (4) -- vaddr (0x7fffffffed10) -- paddr (0x4bdd10) 

-- Tick (33207000) -- ISN: (88528) : S -> 0x(10) at (0x6bc480) -- Size = (4) -- vaddr (0x6bc480) -- paddr (0xbc480) 

-- Tick (33207000) -- ISN: (88532) : S -> 0x(11) at (0x7fffffffed10) -- Size = (4) -- vaddr (0x7fffffffed10) -- paddr (0x4bdd10) 

-- Tick (33207500) -- ISN: (88533) : L from (0x7fffffffed10) -- of Size = (4) -- vaddr (0x7fffffffed10) -- paddr (0x4bdd10) 

-- Tick (33207500) -- ISN: (88539) : L from (0x7fffffffed10) -- of Size = (4) -- vaddr (0x7fffffffed10) -- paddr (0x4bdd10) 

-- Tick (33207500) -- ISN: (88540) : L from (0x7fffffffed10) -- of Size = (4) -- vaddr (0x7fffffffed10) -- paddr (0x4bdd10) 

-- Tick (33207500) -- ISN: (88546) : L from (0x7fffffffed10) -- of Size = (4) -- vaddr (0x7fffffffed10) -- paddr (0x4bdd10) 

-- Tick (33209000) -- ISN: (88549) : S -> 0x(12) at (0x7fffffffed10) -- Size = (4) -- vaddr (0x7fffffffed10) -- paddr (0x4bdd10) 

-- Tick (33209500) -- ISN: (88545) : S -> 0x(11) at (0x6bc484) -- Size = (4) -- vaddr (0x6bc484) -- paddr (0xbc484) 

-- Tick (33209500) -- ISN: (88550) : L from (0x7fffffffed10) -- of Size = (4) -- vaddr (0x7fffffffed10) -- paddr (0x4bdd10) 

-- Tick (33209500) -- ISN: (88556) : L from (0x7fffffffed10) -- of Size = (4) -- vaddr (0x7fffffffed10) -- paddr (0x4bdd10) 

-- Tick (33209500) -- ISN: (88557) : L from (0x7fffffffed10) -- of Size = (4) -- vaddr (0x7fffffffed10) -- paddr (0x4bdd10) 

-- Tick (33210000) -- ISN: (88563) : L from (0x7fffffffed10) -- of Size = (4) -- vaddr (0x7fffffffed10) -- paddr (0x4bdd10) 

-- Tick (33211500) -- ISN: (88562) : S -> 0x(12) at (0x6bc488) -- Size = (4) -- vaddr (0x6bc488) -- paddr (0xbc488) 

-- Tick (33211500) -- ISN: (88566) : S -> 0x(13) at (0x7fffffffed10) -- Size = (4) -- vaddr (0x7fffffffed10) -- paddr (0x4bdd10) 

-- Tick (33212000) -- ISN: (88567) : L from (0x7fffffffed10) -- of Size = (4) -- vaddr (0x7fffffffed10) -- paddr (0x4bdd10) 

-- Tick (33212000) -- ISN: (88573) : L from (0x7fffffffed10) -- of Size = (4) -- vaddr (0x7fffffffed10) -- paddr (0x4bdd10) 

-- Tick (33212000) -- ISN: (88574) : L from (0x7fffffffed10) -- of Size = (4) -- vaddr (0x7fffffffed10) -- paddr (0x4bdd10) 

-- Tick (33212000) -- ISN: (88580) : L from (0x7fffffffed10) -- of Size = (4) -- vaddr (0x7fffffffed10) -- paddr (0x4bdd10) 

-- Tick (33213500) -- ISN: (88583) : S -> 0x(14) at (0x7fffffffed10) -- Size = (4) -- vaddr (0x7fffffffed10) -- paddr (0x4bdd10) 

-- Tick (33214000) -- ISN: (88579) : S -> 0x(13) at (0x6bc48c) -- Size = (4) -- vaddr (0x6bc48c) -- paddr (0xbc48c) 

-- Tick (33214000) -- ISN: (88584) : L from (0x7fffffffed10) -- of Size = (4) -- vaddr (0x7fffffffed10) -- paddr (0x4bdd10) 

-- Tick (33214000) -- ISN: (88590) : L from (0x7fffffffed10) -- of Size = (4) -- vaddr (0x7fffffffed10) -- paddr (0x4bdd10) 

-- Tick (33214000) -- ISN: (88591) : L from (0x7fffffffed10) -- of Size = (4) -- vaddr (0x7fffffffed10) -- paddr (0x4bdd10) 

-- Tick (33214500) -- ISN: (88597) : L from (0x7fffffffed10) -- of Size = (4) -- vaddr (0x7fffffffed10) -- paddr (0x4bdd10) 

-- Tick (33216000) -- ISN: (88596) : S -> 0x(14) at (0x6bc490) -- Size = (4) -- vaddr (0x6bc490) -- paddr (0xbc490) 

-- Tick (33216000) -- ISN: (88600) : S -> 0x(15) at (0x7fffffffed10) -- Size = (4) -- vaddr (0x7fffffffed10) -- paddr (0x4bdd10) 

-- Tick (33216500) -- ISN: (88601) : L from (0x7fffffffed10) -- of Size = (4) -- vaddr (0x7fffffffed10) -- paddr (0x4bdd10) 

-- Tick (33216500) -- ISN: (88607) : L from (0x7fffffffed10) -- of Size = (4) -- vaddr (0x7fffffffed10) -- paddr (0x4bdd10) 

-- Tick (33216500) -- ISN: (88608) : L from (0x7fffffffed10) -- of Size = (4) -- vaddr (0x7fffffffed10) -- paddr (0x4bdd10) 

-- Tick (33216500) -- ISN: (88614) : L from (0x7fffffffed10) -- of Size = (4) -- vaddr (0x7fffffffed10) -- paddr (0x4bdd10) 

-- Tick (33218000) -- ISN: (88617) : S -> 0x(16) at (0x7fffffffed10) -- Size = (4) -- vaddr (0x7fffffffed10) -- paddr (0x4bdd10) 

-- Tick (33218500) -- ISN: (88613) : S -> 0x(15) at (0x6bc494) -- Size = (4) -- vaddr (0x6bc494) -- paddr (0xbc494) 

-- Tick (33218500) -- ISN: (88618) : L from (0x7fffffffed10) -- of Size = (4) -- vaddr (0x7fffffffed10) -- paddr (0x4bdd10) 

-- Tick (33218500) -- ISN: (88624) : L from (0x7fffffffed10) -- of Size = (4) -- vaddr (0x7fffffffed10) -- paddr (0x4bdd10) 

-- Tick (33218500) -- ISN: (88625) : L from (0x7fffffffed10) -- of Size = (4) -- vaddr (0x7fffffffed10) -- paddr (0x4bdd10) 

-- Tick (33219000) -- ISN: (88631) : L from (0x7fffffffed10) -- of Size = (4) -- vaddr (0x7fffffffed10) -- paddr (0x4bdd10) 

-- Tick (33220500) -- ISN: (88630) : S -> 0x(16) at (0x6bc498) -- Size = (4) -- vaddr (0x6bc498) -- paddr (0xbc498) 

-- Tick (33220500) -- ISN: (88634) : S -> 0x(17) at (0x7fffffffed10) -- Size = (4) -- vaddr (0x7fffffffed10) -- paddr (0x4bdd10) 

-- Tick (33221000) -- ISN: (88635) : L from (0x7fffffffed10) -- of Size = (4) -- vaddr (0x7fffffffed10) -- paddr (0x4bdd10) 

-- Tick (33221000) -- ISN: (88641) : L from (0x7fffffffed10) -- of Size = (4) -- vaddr (0x7fffffffed10) -- paddr (0x4bdd10) 

-- Tick (33221000) -- ISN: (88642) : L from (0x7fffffffed10) -- of Size = (4) -- vaddr (0x7fffffffed10) -- paddr (0x4bdd10) 

-- Tick (33221000) -- ISN: (88648) : L from (0x7fffffffed10) -- of Size = (4) -- vaddr (0x7fffffffed10) -- paddr (0x4bdd10) 

-- Tick (33222500) -- ISN: (88651) : S -> 0x(18) at (0x7fffffffed10) -- Size = (4) -- vaddr (0x7fffffffed10) -- paddr (0x4bdd10) 

-- Tick (33223000) -- ISN: (88647) : S -> 0x(17) at (0x6bc49c) -- Size = (4) -- vaddr (0x6bc49c) -- paddr (0xbc49c) 

-- Tick (33223000) -- ISN: (88652) : L from (0x7fffffffed10) -- of Size = (4) -- vaddr (0x7fffffffed10) -- paddr (0x4bdd10) 

-- Tick (33223000) -- ISN: (88658) : L from (0x7fffffffed10) -- of Size = (4) -- vaddr (0x7fffffffed10) -- paddr (0x4bdd10) 

-- Tick (33223000) -- ISN: (88659) : L from (0x7fffffffed10) -- of Size = (4) -- vaddr (0x7fffffffed10) -- paddr (0x4bdd10) 

-- Tick (33223500) -- ISN: (88665) : L from (0x7fffffffed10) -- of Size = (4) -- vaddr (0x7fffffffed10) -- paddr (0x4bdd10) 

-- Tick (33225000) -- ISN: (88664) : S -> 0x(18) at (0x6bc4a0) -- Size = (4) -- vaddr (0x6bc4a0) -- paddr (0xbc4a0) 

-- Tick (33225000) -- ISN: (88668) : S -> 0x(19) at (0x7fffffffed10) -- Size = (4) -- vaddr (0x7fffffffed10) -- paddr (0x4bdd10) 

-- Tick (33225500) -- ISN: (88669) : L from (0x7fffffffed10) -- of Size = (4) -- vaddr (0x7fffffffed10) -- paddr (0x4bdd10) 

-- Tick (33225500) -- ISN: (88675) : L from (0x7fffffffed10) -- of Size = (4) -- vaddr (0x7fffffffed10) -- paddr (0x4bdd10) 

-- Tick (33225500) -- ISN: (88676) : L from (0x7fffffffed10) -- of Size = (4) -- vaddr (0x7fffffffed10) -- paddr (0x4bdd10) 

-- Tick (33225500) -- ISN: (88682) : L from (0x7fffffffed10) -- of Size = (4) -- vaddr (0x7fffffffed10) -- paddr (0x4bdd10) 

-- Tick (33227000) -- ISN: (88685) : S -> 0x(1a) at (0x7fffffffed10) -- Size = (4) -- vaddr (0x7fffffffed10) -- paddr (0x4bdd10) 

-- Tick (33227500) -- ISN: (88681) : S -> 0x(19) at (0x6bc4a4) -- Size = (4) -- vaddr (0x6bc4a4) -- paddr (0xbc4a4) 

-- Tick (33227500) -- ISN: (88686) : L from (0x7fffffffed10) -- of Size = (4) -- vaddr (0x7fffffffed10) -- paddr (0x4bdd10) 

-- Tick (33227500) -- ISN: (88692) : L from (0x7fffffffed10) -- of Size = (4) -- vaddr (0x7fffffffed10) -- paddr (0x4bdd10) 

-- Tick (33227500) -- ISN: (88693) : L from (0x7fffffffed10) -- of Size = (4) -- vaddr (0x7fffffffed10) -- paddr (0x4bdd10) 

-- Tick (33228000) -- ISN: (88699) : L from (0x7fffffffed10) -- of Size = (4) -- vaddr (0x7fffffffed10) -- paddr (0x4bdd10) 

-- Tick (33229500) -- ISN: (88698) : S -> 0x(1a) at (0x6bc4a8) -- Size = (4) -- vaddr (0x6bc4a8) -- paddr (0xbc4a8) 

-- Tick (33229500) -- ISN: (88702) : S -> 0x(1b) at (0x7fffffffed10) -- Size = (4) -- vaddr (0x7fffffffed10) -- paddr (0x4bdd10) 

-- Tick (33230000) -- ISN: (88703) : L from (0x7fffffffed10) -- of Size = (4) -- vaddr (0x7fffffffed10) -- paddr (0x4bdd10) 

-- Tick (33230000) -- ISN: (88709) : L from (0x7fffffffed10) -- of Size = (4) -- vaddr (0x7fffffffed10) -- paddr (0x4bdd10) 

-- Tick (33230000) -- ISN: (88710) : L from (0x7fffffffed10) -- of Size = (4) -- vaddr (0x7fffffffed10) -- paddr (0x4bdd10) 

-- Tick (33230000) -- ISN: (88716) : L from (0x7fffffffed10) -- of Size = (4) -- vaddr (0x7fffffffed10) -- paddr (0x4bdd10) 

-- Tick (33231500) -- ISN: (88719) : S -> 0x(1c) at (0x7fffffffed10) -- Size = (4) -- vaddr (0x7fffffffed10) -- paddr (0x4bdd10) 

-- Tick (33232000) -- ISN: (88715) : S -> 0x(1b) at (0x6bc4ac) -- Size = (4) -- vaddr (0x6bc4ac) -- paddr (0xbc4ac) 

-- Tick (33232000) -- ISN: (88720) : L from (0x7fffffffed10) -- of Size = (4) -- vaddr (0x7fffffffed10) -- paddr (0x4bdd10) 

-- Tick (33232000) -- ISN: (88726) : L from (0x7fffffffed10) -- of Size = (4) -- vaddr (0x7fffffffed10) -- paddr (0x4bdd10) 

-- Tick (33232000) -- ISN: (88727) : L from (0x7fffffffed10) -- of Size = (4) -- vaddr (0x7fffffffed10) -- paddr (0x4bdd10) 

-- Tick (33232500) -- ISN: (88733) : L from (0x7fffffffed10) -- of Size = (4) -- vaddr (0x7fffffffed10) -- paddr (0x4bdd10) 

-- Tick (33234000) -- ISN: (88732) : S -> 0x(1c) at (0x6bc4b0) -- Size = (4) -- vaddr (0x6bc4b0) -- paddr (0xbc4b0) 

-- Tick (33234000) -- ISN: (88736) : S -> 0x(1d) at (0x7fffffffed10) -- Size = (4) -- vaddr (0x7fffffffed10) -- paddr (0x4bdd10) 

-- Tick (33234500) -- ISN: (88737) : L from (0x7fffffffed10) -- of Size = (4) -- vaddr (0x7fffffffed10) -- paddr (0x4bdd10) 

-- Tick (33234500) -- ISN: (88743) : L from (0x7fffffffed10) -- of Size = (4) -- vaddr (0x7fffffffed10) -- paddr (0x4bdd10) 

-- Tick (33234500) -- ISN: (88744) : L from (0x7fffffffed10) -- of Size = (4) -- vaddr (0x7fffffffed10) -- paddr (0x4bdd10) 

-- Tick (33234500) -- ISN: (88750) : L from (0x7fffffffed10) -- of Size = (4) -- vaddr (0x7fffffffed10) -- paddr (0x4bdd10) 

-- Tick (33236000) -- ISN: (88753) : S -> 0x(1e) at (0x7fffffffed10) -- Size = (4) -- vaddr (0x7fffffffed10) -- paddr (0x4bdd10) 

-- Tick (33236500) -- ISN: (88749) : S -> 0x(1d) at (0x6bc4b4) -- Size = (4) -- vaddr (0x6bc4b4) -- paddr (0xbc4b4) 

-- Tick (33236500) -- ISN: (88754) : L from (0x7fffffffed10) -- of Size = (4) -- vaddr (0x7fffffffed10) -- paddr (0x4bdd10) 

-- Tick (33236500) -- ISN: (88760) : L from (0x7fffffffed10) -- of Size = (4) -- vaddr (0x7fffffffed10) -- paddr (0x4bdd10) 

-- Tick (33236500) -- ISN: (88761) : L from (0x7fffffffed10) -- of Size = (4) -- vaddr (0x7fffffffed10) -- paddr (0x4bdd10) 

-- Tick (33237000) -- ISN: (88767) : L from (0x7fffffffed10) -- of Size = (4) -- vaddr (0x7fffffffed10) -- paddr (0x4bdd10) 

-- Tick (33238500) -- ISN: (88766) : S -> 0x(1e) at (0x6bc4b8) -- Size = (4) -- vaddr (0x6bc4b8) -- paddr (0xbc4b8) 

-- Tick (33238500) -- ISN: (88770) : S -> 0x(1f) at (0x7fffffffed10) -- Size = (4) -- vaddr (0x7fffffffed10) -- paddr (0x4bdd10) 

-- Tick (33239000) -- ISN: (88771) : L from (0x7fffffffed10) -- of Size = (4) -- vaddr (0x7fffffffed10) -- paddr (0x4bdd10) 

-- Tick (33239000) -- ISN: (88777) : L from (0x7fffffffed10) -- of Size = (4) -- vaddr (0x7fffffffed10) -- paddr (0x4bdd10) 

-- Tick (33239000) -- ISN: (88778) : L from (0x7fffffffed10) -- of Size = (4) -- vaddr (0x7fffffffed10) -- paddr (0x4bdd10) 

-- Tick (33239000) -- ISN: (88784) : L from (0x7fffffffed10) -- of Size = (4) -- vaddr (0x7fffffffed10) -- paddr (0x4bdd10) 

-- Tick (33240500) -- ISN: (88787) : S -> 0x(20) at (0x7fffffffed10) -- Size = (4) -- vaddr (0x7fffffffed10) -- paddr (0x4bdd10) 

-- Tick (33241000) -- ISN: (88783) : S -> 0x(1f) at (0x6bc4bc) -- Size = (4) -- vaddr (0x6bc4bc) -- paddr (0xbc4bc) 

-- Tick (33241000) -- ISN: (88788) : L from (0x7fffffffed10) -- of Size = (4) -- vaddr (0x7fffffffed10) -- paddr (0x4bdd10) 

-- Tick (33241000) -- ISN: (88794) : L from (0x7fffffffed10) -- of Size = (4) -- vaddr (0x7fffffffed10) -- paddr (0x4bdd10) 

-- Tick (33241000) -- ISN: (88795) : L from (0x7fffffffed10) -- of Size = (4) -- vaddr (0x7fffffffed10) -- paddr (0x4bdd10) 

-- Tick (33241500) -- ISN: (88801) : L from (0x7fffffffed10) -- of Size = (4) -- vaddr (0x7fffffffed10) -- paddr (0x4bdd10) 

-- Tick (33243000) -- ISN: (88800) : S -> 0x(20) at (0x6bc4c0) -- Size = (4) -- vaddr (0x6bc4c0) -- paddr (0xbc4c0) 

-- Tick (33264000) -- ISN: (88804) : S -> 0x(21) at (0x7fffffffed10) -- Size = (4) -- vaddr (0x7fffffffed10) -- paddr (0x4bdd10) 

-- Tick (33264500) -- ISN: (88805) : L from (0x7fffffffed10) -- of Size = (4) -- vaddr (0x7fffffffed10) -- paddr (0x4bdd10) 

-- Tick (33264500) -- ISN: (88811) : L from (0x7fffffffed10) -- of Size = (4) -- vaddr (0x7fffffffed10) -- paddr (0x4bdd10) 

-- Tick (33264500) -- ISN: (88812) : L from (0x7fffffffed10) -- of Size = (4) -- vaddr (0x7fffffffed10) -- paddr (0x4bdd10) 

-- Tick (33265000) -- ISN: (88818) : L from (0x7fffffffed10) -- of Size = (4) -- vaddr (0x7fffffffed10) -- paddr (0x4bdd10) 

-- Tick (33266500) -- ISN: (88817) : S -> 0x(21) at (0x6bc4c4) -- Size = (4) -- vaddr (0x6bc4c4) -- paddr (0xbc4c4) 

-- Tick (33266500) -- ISN: (88821) : S -> 0x(22) at (0x7fffffffed10) -- Size = (4) -- vaddr (0x7fffffffed10) -- paddr (0x4bdd10) 

-- Tick (33267000) -- ISN: (88822) : L from (0x7fffffffed10) -- of Size = (4) -- vaddr (0x7fffffffed10) -- paddr (0x4bdd10) 

-- Tick (33267000) -- ISN: (88828) : L from (0x7fffffffed10) -- of Size = (4) -- vaddr (0x7fffffffed10) -- paddr (0x4bdd10) 

-- Tick (33267000) -- ISN: (88829) : L from (0x7fffffffed10) -- of Size = (4) -- vaddr (0x7fffffffed10) -- paddr (0x4bdd10) 

-- Tick (33267000) -- ISN: (88835) : L from (0x7fffffffed10) -- of Size = (4) -- vaddr (0x7fffffffed10) -- paddr (0x4bdd10) 

-- Tick (33269000) -- ISN: (88834) : S -> 0x(22) at (0x6bc4c8) -- Size = (4) -- vaddr (0x6bc4c8) -- paddr (0xbc4c8) 

-- Tick (33269000) -- ISN: (88838) : S -> 0x(23) at (0x7fffffffed10) -- Size = (4) -- vaddr (0x7fffffffed10) -- paddr (0x4bdd10) 

-- Tick (33269500) -- ISN: (88839) : L from (0x7fffffffed10) -- of Size = (4) -- vaddr (0x7fffffffed10) -- paddr (0x4bdd10) 

-- Tick (33269500) -- ISN: (88845) : L from (0x7fffffffed10) -- of Size = (4) -- vaddr (0x7fffffffed10) -- paddr (0x4bdd10) 

-- Tick (33269500) -- ISN: (88846) : L from (0x7fffffffed10) -- of Size = (4) -- vaddr (0x7fffffffed10) -- paddr (0x4bdd10) 

-- Tick (33270000) -- ISN: (88852) : L from (0x7fffffffed10) -- of Size = (4) -- vaddr (0x7fffffffed10) -- paddr (0x4bdd10) 

-- Tick (33271500) -- ISN: (88851) : S -> 0x(23) at (0x6bc4cc) -- Size = (4) -- vaddr (0x6bc4cc) -- paddr (0xbc4cc) 

-- Tick (33271500) -- ISN: (88855) : S -> 0x(24) at (0x7fffffffed10) -- Size = (4) -- vaddr (0x7fffffffed10) -- paddr (0x4bdd10) 

-- Tick (33272000) -- ISN: (88856) : L from (0x7fffffffed10) -- of Size = (4) -- vaddr (0x7fffffffed10) -- paddr (0x4bdd10) 

-- Tick (33272000) -- ISN: (88862) : L from (0x7fffffffed10) -- of Size = (4) -- vaddr (0x7fffffffed10) -- paddr (0x4bdd10) 

-- Tick (33272000) -- ISN: (88863) : L from (0x7fffffffed10) -- of Size = (4) -- vaddr (0x7fffffffed10) -- paddr (0x4bdd10) 

-- Tick (33272000) -- ISN: (88869) : L from (0x7fffffffed10) -- of Size = (4) -- vaddr (0x7fffffffed10) -- paddr (0x4bdd10) 

-- Tick (33273500) -- ISN: (88872) : S -> 0x(25) at (0x7fffffffed10) -- Size = (4) -- vaddr (0x7fffffffed10) -- paddr (0x4bdd10) 

-- Tick (33274000) -- ISN: (88868) : S -> 0x(24) at (0x6bc4d0) -- Size = (4) -- vaddr (0x6bc4d0) -- paddr (0xbc4d0) 

-- Tick (33274000) -- ISN: (88873) : L from (0x7fffffffed10) -- of Size = (4) -- vaddr (0x7fffffffed10) -- paddr (0x4bdd10) 

-- Tick (33274000) -- ISN: (88879) : L from (0x7fffffffed10) -- of Size = (4) -- vaddr (0x7fffffffed10) -- paddr (0x4bdd10) 

-- Tick (33274000) -- ISN: (88880) : L from (0x7fffffffed10) -- of Size = (4) -- vaddr (0x7fffffffed10) -- paddr (0x4bdd10) 

-- Tick (33274500) -- ISN: (88886) : L from (0x7fffffffed10) -- of Size = (4) -- vaddr (0x7fffffffed10) -- paddr (0x4bdd10) 

-- Tick (33276000) -- ISN: (88885) : S -> 0x(25) at (0x6bc4d4) -- Size = (4) -- vaddr (0x6bc4d4) -- paddr (0xbc4d4) 

-- Tick (33276000) -- ISN: (88889) : S -> 0x(26) at (0x7fffffffed10) -- Size = (4) -- vaddr (0x7fffffffed10) -- paddr (0x4bdd10) 

-- Tick (33276500) -- ISN: (88890) : L from (0x7fffffffed10) -- of Size = (4) -- vaddr (0x7fffffffed10) -- paddr (0x4bdd10) 

-- Tick (33276500) -- ISN: (88896) : L from (0x7fffffffed10) -- of Size = (4) -- vaddr (0x7fffffffed10) -- paddr (0x4bdd10) 

-- Tick (33276500) -- ISN: (88897) : L from (0x7fffffffed10) -- of Size = (4) -- vaddr (0x7fffffffed10) -- paddr (0x4bdd10) 

-- Tick (33276500) -- ISN: (88903) : L from (0x7fffffffed10) -- of Size = (4) -- vaddr (0x7fffffffed10) -- paddr (0x4bdd10) 

-- Tick (33278000) -- ISN: (88906) : S -> 0x(27) at (0x7fffffffed10) -- Size = (4) -- vaddr (0x7fffffffed10) -- paddr (0x4bdd10) 

-- Tick (33278500) -- ISN: (88902) : S -> 0x(26) at (0x6bc4d8) -- Size = (4) -- vaddr (0x6bc4d8) -- paddr (0xbc4d8) 

-- Tick (33278500) -- ISN: (88907) : L from (0x7fffffffed10) -- of Size = (4) -- vaddr (0x7fffffffed10) -- paddr (0x4bdd10) 

-- Tick (33278500) -- ISN: (88913) : L from (0x7fffffffed10) -- of Size = (4) -- vaddr (0x7fffffffed10) -- paddr (0x4bdd10) 

-- Tick (33278500) -- ISN: (88914) : L from (0x7fffffffed10) -- of Size = (4) -- vaddr (0x7fffffffed10) -- paddr (0x4bdd10) 

-- Tick (33279000) -- ISN: (88920) : L from (0x7fffffffed10) -- of Size = (4) -- vaddr (0x7fffffffed10) -- paddr (0x4bdd10) 

-- Tick (33280500) -- ISN: (88919) : S -> 0x(27) at (0x6bc4dc) -- Size = (4) -- vaddr (0x6bc4dc) -- paddr (0xbc4dc) 

-- Tick (33280500) -- ISN: (88923) : S -> 0x(28) at (0x7fffffffed10) -- Size = (4) -- vaddr (0x7fffffffed10) -- paddr (0x4bdd10) 

-- Tick (33281000) -- ISN: (88924) : L from (0x7fffffffed10) -- of Size = (4) -- vaddr (0x7fffffffed10) -- paddr (0x4bdd10) 

-- Tick (33281000) -- ISN: (88930) : L from (0x7fffffffed10) -- of Size = (4) -- vaddr (0x7fffffffed10) -- paddr (0x4bdd10) 

-- Tick (33281000) -- ISN: (88931) : L from (0x7fffffffed10) -- of Size = (4) -- vaddr (0x7fffffffed10) -- paddr (0x4bdd10) 

-- Tick (33281000) -- ISN: (88937) : L from (0x7fffffffed10) -- of Size = (4) -- vaddr (0x7fffffffed10) -- paddr (0x4bdd10) 

-- Tick (33282500) -- ISN: (88940) : S -> 0x(29) at (0x7fffffffed10) -- Size = (4) -- vaddr (0x7fffffffed10) -- paddr (0x4bdd10) 

-- Tick (33283000) -- ISN: (88936) : S -> 0x(28) at (0x6bc4e0) -- Size = (4) -- vaddr (0x6bc4e0) -- paddr (0xbc4e0) 

-- Tick (33283000) -- ISN: (88941) : L from (0x7fffffffed10) -- of Size = (4) -- vaddr (0x7fffffffed10) -- paddr (0x4bdd10) 

-- Tick (33283000) -- ISN: (88947) : L from (0x7fffffffed10) -- of Size = (4) -- vaddr (0x7fffffffed10) -- paddr (0x4bdd10) 

-- Tick (33283000) -- ISN: (88948) : L from (0x7fffffffed10) -- of Size = (4) -- vaddr (0x7fffffffed10) -- paddr (0x4bdd10) 

-- Tick (33283500) -- ISN: (88954) : L from (0x7fffffffed10) -- of Size = (4) -- vaddr (0x7fffffffed10) -- paddr (0x4bdd10) 

-- Tick (33285000) -- ISN: (88953) : S -> 0x(29) at (0x6bc4e4) -- Size = (4) -- vaddr (0x6bc4e4) -- paddr (0xbc4e4) 

-- Tick (33285000) -- ISN: (88957) : S -> 0x(2a) at (0x7fffffffed10) -- Size = (4) -- vaddr (0x7fffffffed10) -- paddr (0x4bdd10) 

-- Tick (33285500) -- ISN: (88958) : L from (0x7fffffffed10) -- of Size = (4) -- vaddr (0x7fffffffed10) -- paddr (0x4bdd10) 

-- Tick (33285500) -- ISN: (88964) : L from (0x7fffffffed10) -- of Size = (4) -- vaddr (0x7fffffffed10) -- paddr (0x4bdd10) 

-- Tick (33285500) -- ISN: (88965) : L from (0x7fffffffed10) -- of Size = (4) -- vaddr (0x7fffffffed10) -- paddr (0x4bdd10) 

-- Tick (33285500) -- ISN: (88971) : L from (0x7fffffffed10) -- of Size = (4) -- vaddr (0x7fffffffed10) -- paddr (0x4bdd10) 

-- Tick (33287000) -- ISN: (88974) : S -> 0x(2b) at (0x7fffffffed10) -- Size = (4) -- vaddr (0x7fffffffed10) -- paddr (0x4bdd10) 

-- Tick (33287500) -- ISN: (88970) : S -> 0x(2a) at (0x6bc4e8) -- Size = (4) -- vaddr (0x6bc4e8) -- paddr (0xbc4e8) 

-- Tick (33287500) -- ISN: (88975) : L from (0x7fffffffed10) -- of Size = (4) -- vaddr (0x7fffffffed10) -- paddr (0x4bdd10) 

-- Tick (33287500) -- ISN: (88981) : L from (0x7fffffffed10) -- of Size = (4) -- vaddr (0x7fffffffed10) -- paddr (0x4bdd10) 

-- Tick (33287500) -- ISN: (88982) : L from (0x7fffffffed10) -- of Size = (4) -- vaddr (0x7fffffffed10) -- paddr (0x4bdd10) 

-- Tick (33288000) -- ISN: (88988) : L from (0x7fffffffed10) -- of Size = (4) -- vaddr (0x7fffffffed10) -- paddr (0x4bdd10) 

-- Tick (33289500) -- ISN: (88987) : S -> 0x(2b) at (0x6bc4ec) -- Size = (4) -- vaddr (0x6bc4ec) -- paddr (0xbc4ec) 

-- Tick (33289500) -- ISN: (88991) : S -> 0x(2c) at (0x7fffffffed10) -- Size = (4) -- vaddr (0x7fffffffed10) -- paddr (0x4bdd10) 

-- Tick (33290000) -- ISN: (88992) : L from (0x7fffffffed10) -- of Size = (4) -- vaddr (0x7fffffffed10) -- paddr (0x4bdd10) 

-- Tick (33290000) -- ISN: (88998) : L from (0x7fffffffed10) -- of Size = (4) -- vaddr (0x7fffffffed10) -- paddr (0x4bdd10) 

-- Tick (33290000) -- ISN: (88999) : L from (0x7fffffffed10) -- of Size = (4) -- vaddr (0x7fffffffed10) -- paddr (0x4bdd10) 

-- Tick (33290000) -- ISN: (89005) : L from (0x7fffffffed10) -- of Size = (4) -- vaddr (0x7fffffffed10) -- paddr (0x4bdd10) 

-- Tick (33291500) -- ISN: (89008) : S -> 0x(2d) at (0x7fffffffed10) -- Size = (4) -- vaddr (0x7fffffffed10) -- paddr (0x4bdd10) 

-- Tick (33292000) -- ISN: (89004) : S -> 0x(2c) at (0x6bc4f0) -- Size = (4) -- vaddr (0x6bc4f0) -- paddr (0xbc4f0) 

-- Tick (33292000) -- ISN: (89009) : L from (0x7fffffffed10) -- of Size = (4) -- vaddr (0x7fffffffed10) -- paddr (0x4bdd10) 

-- Tick (33292000) -- ISN: (89015) : L from (0x7fffffffed10) -- of Size = (4) -- vaddr (0x7fffffffed10) -- paddr (0x4bdd10) 

-- Tick (33292000) -- ISN: (89016) : L from (0x7fffffffed10) -- of Size = (4) -- vaddr (0x7fffffffed10) -- paddr (0x4bdd10) 

-- Tick (33292500) -- ISN: (89022) : L from (0x7fffffffed10) -- of Size = (4) -- vaddr (0x7fffffffed10) -- paddr (0x4bdd10) 

-- Tick (33294000) -- ISN: (89021) : S -> 0x(2d) at (0x6bc4f4) -- Size = (4) -- vaddr (0x6bc4f4) -- paddr (0xbc4f4) 

-- Tick (33294000) -- ISN: (89025) : S -> 0x(2e) at (0x7fffffffed10) -- Size = (4) -- vaddr (0x7fffffffed10) -- paddr (0x4bdd10) 

-- Tick (33294500) -- ISN: (89026) : L from (0x7fffffffed10) -- of Size = (4) -- vaddr (0x7fffffffed10) -- paddr (0x4bdd10) 

-- Tick (33294500) -- ISN: (89032) : L from (0x7fffffffed10) -- of Size = (4) -- vaddr (0x7fffffffed10) -- paddr (0x4bdd10) 

-- Tick (33294500) -- ISN: (89033) : L from (0x7fffffffed10) -- of Size = (4) -- vaddr (0x7fffffffed10) -- paddr (0x4bdd10) 

-- Tick (33294500) -- ISN: (89039) : L from (0x7fffffffed10) -- of Size = (4) -- vaddr (0x7fffffffed10) -- paddr (0x4bdd10) 

-- Tick (33296000) -- ISN: (89042) : S -> 0x(2f) at (0x7fffffffed10) -- Size = (4) -- vaddr (0x7fffffffed10) -- paddr (0x4bdd10) 

-- Tick (33296500) -- ISN: (89038) : S -> 0x(2e) at (0x6bc4f8) -- Size = (4) -- vaddr (0x6bc4f8) -- paddr (0xbc4f8) 

-- Tick (33296500) -- ISN: (89043) : L from (0x7fffffffed10) -- of Size = (4) -- vaddr (0x7fffffffed10) -- paddr (0x4bdd10) 

-- Tick (33296500) -- ISN: (89049) : L from (0x7fffffffed10) -- of Size = (4) -- vaddr (0x7fffffffed10) -- paddr (0x4bdd10) 

-- Tick (33296500) -- ISN: (89050) : L from (0x7fffffffed10) -- of Size = (4) -- vaddr (0x7fffffffed10) -- paddr (0x4bdd10) 

-- Tick (33297000) -- ISN: (89056) : L from (0x7fffffffed10) -- of Size = (4) -- vaddr (0x7fffffffed10) -- paddr (0x4bdd10) 

-- Tick (33298500) -- ISN: (89055) : S -> 0x(2f) at (0x6bc4fc) -- Size = (4) -- vaddr (0x6bc4fc) -- paddr (0xbc4fc) 

-- Tick (33298500) -- ISN: (89059) : S -> 0x(30) at (0x7fffffffed10) -- Size = (4) -- vaddr (0x7fffffffed10) -- paddr (0x4bdd10) 

-- Tick (33299000) -- ISN: (89060) : L from (0x7fffffffed10) -- of Size = (4) -- vaddr (0x7fffffffed10) -- paddr (0x4bdd10) 

-- Tick (33299000) -- ISN: (89066) : L from (0x7fffffffed10) -- of Size = (4) -- vaddr (0x7fffffffed10) -- paddr (0x4bdd10) 

-- Tick (33299000) -- ISN: (89067) : L from (0x7fffffffed10) -- of Size = (4) -- vaddr (0x7fffffffed10) -- paddr (0x4bdd10) 

-- Tick (33299000) -- ISN: (89073) : L from (0x7fffffffed10) -- of Size = (4) -- vaddr (0x7fffffffed10) -- paddr (0x4bdd10) 

-- Tick (33301000) -- ISN: (89072) : S -> 0x(30) at (0x6bc500) -- Size = (4) -- vaddr (0x6bc500) -- paddr (0xbc500) 

-- Tick (33346000) -- ISN: (89076) : S -> 0x(31) at (0x7fffffffed10) -- Size = (4) -- vaddr (0x7fffffffed10) -- paddr (0x4bdd10) 

-- Tick (33346500) -- ISN: (89077) : L from (0x7fffffffed10) -- of Size = (4) -- vaddr (0x7fffffffed10) -- paddr (0x4bdd10) 

-- Tick (33346500) -- ISN: (89083) : L from (0x7fffffffed10) -- of Size = (4) -- vaddr (0x7fffffffed10) -- paddr (0x4bdd10) 

-- Tick (33346500) -- ISN: (89084) : L from (0x7fffffffed10) -- of Size = (4) -- vaddr (0x7fffffffed10) -- paddr (0x4bdd10) 

-- Tick (33347000) -- ISN: (89090) : L from (0x7fffffffed10) -- of Size = (4) -- vaddr (0x7fffffffed10) -- paddr (0x4bdd10) 

-- Tick (33348500) -- ISN: (89089) : S -> 0x(31) at (0x6bc504) -- Size = (4) -- vaddr (0x6bc504) -- paddr (0xbc504) 

-- Tick (33348500) -- ISN: (89093) : S -> 0x(32) at (0x7fffffffed10) -- Size = (4) -- vaddr (0x7fffffffed10) -- paddr (0x4bdd10) 

-- Tick (33349000) -- ISN: (89094) : L from (0x7fffffffed10) -- of Size = (4) -- vaddr (0x7fffffffed10) -- paddr (0x4bdd10) 

-- Tick (33349000) -- ISN: (89100) : L from (0x7fffffffed10) -- of Size = (4) -- vaddr (0x7fffffffed10) -- paddr (0x4bdd10) 

-- Tick (33349000) -- ISN: (89101) : L from (0x7fffffffed10) -- of Size = (4) -- vaddr (0x7fffffffed10) -- paddr (0x4bdd10) 

-- Tick (33349000) -- ISN: (89107) : L from (0x7fffffffed10) -- of Size = (4) -- vaddr (0x7fffffffed10) -- paddr (0x4bdd10) 

-- Tick (33351000) -- ISN: (89106) : S -> 0x(32) at (0x6bc508) -- Size = (4) -- vaddr (0x6bc508) -- paddr (0xbc508) 

-- Tick (33351000) -- ISN: (89110) : S -> 0x(33) at (0x7fffffffed10) -- Size = (4) -- vaddr (0x7fffffffed10) -- paddr (0x4bdd10) 

-- Tick (33351500) -- ISN: (89111) : L from (0x7fffffffed10) -- of Size = (4) -- vaddr (0x7fffffffed10) -- paddr (0x4bdd10) 

-- Tick (33351500) -- ISN: (89117) : L from (0x7fffffffed10) -- of Size = (4) -- vaddr (0x7fffffffed10) -- paddr (0x4bdd10) 

-- Tick (33351500) -- ISN: (89118) : L from (0x7fffffffed10) -- of Size = (4) -- vaddr (0x7fffffffed10) -- paddr (0x4bdd10) 

-- Tick (33352000) -- ISN: (89124) : L from (0x7fffffffed10) -- of Size = (4) -- vaddr (0x7fffffffed10) -- paddr (0x4bdd10) 

-- Tick (33353500) -- ISN: (89123) : S -> 0x(33) at (0x6bc50c) -- Size = (4) -- vaddr (0x6bc50c) -- paddr (0xbc50c) 

-- Tick (33353500) -- ISN: (89127) : S -> 0x(34) at (0x7fffffffed10) -- Size = (4) -- vaddr (0x7fffffffed10) -- paddr (0x4bdd10) 

-- Tick (33354000) -- ISN: (89128) : L from (0x7fffffffed10) -- of Size = (4) -- vaddr (0x7fffffffed10) -- paddr (0x4bdd10) 

-- Tick (33354000) -- ISN: (89134) : L from (0x7fffffffed10) -- of Size = (4) -- vaddr (0x7fffffffed10) -- paddr (0x4bdd10) 

-- Tick (33354000) -- ISN: (89135) : L from (0x7fffffffed10) -- of Size = (4) -- vaddr (0x7fffffffed10) -- paddr (0x4bdd10) 

-- Tick (33354000) -- ISN: (89141) : L from (0x7fffffffed10) -- of Size = (4) -- vaddr (0x7fffffffed10) -- paddr (0x4bdd10) 

-- Tick (33355500) -- ISN: (89144) : S -> 0x(35) at (0x7fffffffed10) -- Size = (4) -- vaddr (0x7fffffffed10) -- paddr (0x4bdd10) 

-- Tick (33356000) -- ISN: (89140) : S -> 0x(34) at (0x6bc510) -- Size = (4) -- vaddr (0x6bc510) -- paddr (0xbc510) 

-- Tick (33356000) -- ISN: (89145) : L from (0x7fffffffed10) -- of Size = (4) -- vaddr (0x7fffffffed10) -- paddr (0x4bdd10) 

-- Tick (33356000) -- ISN: (89151) : L from (0x7fffffffed10) -- of Size = (4) -- vaddr (0x7fffffffed10) -- paddr (0x4bdd10) 

-- Tick (33356000) -- ISN: (89152) : L from (0x7fffffffed10) -- of Size = (4) -- vaddr (0x7fffffffed10) -- paddr (0x4bdd10) 

-- Tick (33356500) -- ISN: (89158) : L from (0x7fffffffed10) -- of Size = (4) -- vaddr (0x7fffffffed10) -- paddr (0x4bdd10) 

-- Tick (33358000) -- ISN: (89157) : S -> 0x(35) at (0x6bc514) -- Size = (4) -- vaddr (0x6bc514) -- paddr (0xbc514) 

-- Tick (33358000) -- ISN: (89161) : S -> 0x(36) at (0x7fffffffed10) -- Size = (4) -- vaddr (0x7fffffffed10) -- paddr (0x4bdd10) 

-- Tick (33358500) -- ISN: (89162) : L from (0x7fffffffed10) -- of Size = (4) -- vaddr (0x7fffffffed10) -- paddr (0x4bdd10) 

-- Tick (33358500) -- ISN: (89168) : L from (0x7fffffffed10) -- of Size = (4) -- vaddr (0x7fffffffed10) -- paddr (0x4bdd10) 

-- Tick (33358500) -- ISN: (89169) : L from (0x7fffffffed10) -- of Size = (4) -- vaddr (0x7fffffffed10) -- paddr (0x4bdd10) 

-- Tick (33358500) -- ISN: (89175) : L from (0x7fffffffed10) -- of Size = (4) -- vaddr (0x7fffffffed10) -- paddr (0x4bdd10) 

-- Tick (33360000) -- ISN: (89178) : S -> 0x(37) at (0x7fffffffed10) -- Size = (4) -- vaddr (0x7fffffffed10) -- paddr (0x4bdd10) 

-- Tick (33360500) -- ISN: (89174) : S -> 0x(36) at (0x6bc518) -- Size = (4) -- vaddr (0x6bc518) -- paddr (0xbc518) 

-- Tick (33360500) -- ISN: (89179) : L from (0x7fffffffed10) -- of Size = (4) -- vaddr (0x7fffffffed10) -- paddr (0x4bdd10) 

-- Tick (33360500) -- ISN: (89185) : L from (0x7fffffffed10) -- of Size = (4) -- vaddr (0x7fffffffed10) -- paddr (0x4bdd10) 

-- Tick (33360500) -- ISN: (89186) : L from (0x7fffffffed10) -- of Size = (4) -- vaddr (0x7fffffffed10) -- paddr (0x4bdd10) 

-- Tick (33361000) -- ISN: (89192) : L from (0x7fffffffed10) -- of Size = (4) -- vaddr (0x7fffffffed10) -- paddr (0x4bdd10) 

-- Tick (33362500) -- ISN: (89191) : S -> 0x(37) at (0x6bc51c) -- Size = (4) -- vaddr (0x6bc51c) -- paddr (0xbc51c) 

-- Tick (33362500) -- ISN: (89195) : S -> 0x(38) at (0x7fffffffed10) -- Size = (4) -- vaddr (0x7fffffffed10) -- paddr (0x4bdd10) 

-- Tick (33363000) -- ISN: (89196) : L from (0x7fffffffed10) -- of Size = (4) -- vaddr (0x7fffffffed10) -- paddr (0x4bdd10) 

-- Tick (33363000) -- ISN: (89202) : L from (0x7fffffffed10) -- of Size = (4) -- vaddr (0x7fffffffed10) -- paddr (0x4bdd10) 

-- Tick (33363000) -- ISN: (89203) : L from (0x7fffffffed10) -- of Size = (4) -- vaddr (0x7fffffffed10) -- paddr (0x4bdd10) 

-- Tick (33363000) -- ISN: (89209) : L from (0x7fffffffed10) -- of Size = (4) -- vaddr (0x7fffffffed10) -- paddr (0x4bdd10) 

-- Tick (33364500) -- ISN: (89212) : S -> 0x(39) at (0x7fffffffed10) -- Size = (4) -- vaddr (0x7fffffffed10) -- paddr (0x4bdd10) 

-- Tick (33365000) -- ISN: (89208) : S -> 0x(38) at (0x6bc520) -- Size = (4) -- vaddr (0x6bc520) -- paddr (0xbc520) 

-- Tick (33365000) -- ISN: (89213) : L from (0x7fffffffed10) -- of Size = (4) -- vaddr (0x7fffffffed10) -- paddr (0x4bdd10) 

-- Tick (33365000) -- ISN: (89219) : L from (0x7fffffffed10) -- of Size = (4) -- vaddr (0x7fffffffed10) -- paddr (0x4bdd10) 

-- Tick (33365000) -- ISN: (89220) : L from (0x7fffffffed10) -- of Size = (4) -- vaddr (0x7fffffffed10) -- paddr (0x4bdd10) 

-- Tick (33365500) -- ISN: (89226) : L from (0x7fffffffed10) -- of Size = (4) -- vaddr (0x7fffffffed10) -- paddr (0x4bdd10) 

-- Tick (33367000) -- ISN: (89225) : S -> 0x(39) at (0x6bc524) -- Size = (4) -- vaddr (0x6bc524) -- paddr (0xbc524) 

-- Tick (33367000) -- ISN: (89229) : S -> 0x(3a) at (0x7fffffffed10) -- Size = (4) -- vaddr (0x7fffffffed10) -- paddr (0x4bdd10) 

-- Tick (33367500) -- ISN: (89230) : L from (0x7fffffffed10) -- of Size = (4) -- vaddr (0x7fffffffed10) -- paddr (0x4bdd10) 

-- Tick (33367500) -- ISN: (89236) : L from (0x7fffffffed10) -- of Size = (4) -- vaddr (0x7fffffffed10) -- paddr (0x4bdd10) 

-- Tick (33367500) -- ISN: (89237) : L from (0x7fffffffed10) -- of Size = (4) -- vaddr (0x7fffffffed10) -- paddr (0x4bdd10) 

-- Tick (33367500) -- ISN: (89243) : L from (0x7fffffffed10) -- of Size = (4) -- vaddr (0x7fffffffed10) -- paddr (0x4bdd10) 

-- Tick (33369000) -- ISN: (89246) : S -> 0x(3b) at (0x7fffffffed10) -- Size = (4) -- vaddr (0x7fffffffed10) -- paddr (0x4bdd10) 

-- Tick (33369500) -- ISN: (89242) : S -> 0x(3a) at (0x6bc528) -- Size = (4) -- vaddr (0x6bc528) -- paddr (0xbc528) 

-- Tick (33369500) -- ISN: (89247) : L from (0x7fffffffed10) -- of Size = (4) -- vaddr (0x7fffffffed10) -- paddr (0x4bdd10) 

-- Tick (33369500) -- ISN: (89253) : L from (0x7fffffffed10) -- of Size = (4) -- vaddr (0x7fffffffed10) -- paddr (0x4bdd10) 

-- Tick (33369500) -- ISN: (89254) : L from (0x7fffffffed10) -- of Size = (4) -- vaddr (0x7fffffffed10) -- paddr (0x4bdd10) 

-- Tick (33370000) -- ISN: (89260) : L from (0x7fffffffed10) -- of Size = (4) -- vaddr (0x7fffffffed10) -- paddr (0x4bdd10) 

-- Tick (33371500) -- ISN: (89259) : S -> 0x(3b) at (0x6bc52c) -- Size = (4) -- vaddr (0x6bc52c) -- paddr (0xbc52c) 

-- Tick (33371500) -- ISN: (89263) : S -> 0x(3c) at (0x7fffffffed10) -- Size = (4) -- vaddr (0x7fffffffed10) -- paddr (0x4bdd10) 

-- Tick (33372000) -- ISN: (89264) : L from (0x7fffffffed10) -- of Size = (4) -- vaddr (0x7fffffffed10) -- paddr (0x4bdd10) 

-- Tick (33372000) -- ISN: (89270) : L from (0x7fffffffed10) -- of Size = (4) -- vaddr (0x7fffffffed10) -- paddr (0x4bdd10) 

-- Tick (33372000) -- ISN: (89271) : L from (0x7fffffffed10) -- of Size = (4) -- vaddr (0x7fffffffed10) -- paddr (0x4bdd10) 

-- Tick (33372000) -- ISN: (89277) : L from (0x7fffffffed10) -- of Size = (4) -- vaddr (0x7fffffffed10) -- paddr (0x4bdd10) 

-- Tick (33373500) -- ISN: (89280) : S -> 0x(3d) at (0x7fffffffed10) -- Size = (4) -- vaddr (0x7fffffffed10) -- paddr (0x4bdd10) 

-- Tick (33374000) -- ISN: (89276) : S -> 0x(3c) at (0x6bc530) -- Size = (4) -- vaddr (0x6bc530) -- paddr (0xbc530) 

-- Tick (33374000) -- ISN: (89281) : L from (0x7fffffffed10) -- of Size = (4) -- vaddr (0x7fffffffed10) -- paddr (0x4bdd10) 

-- Tick (33374000) -- ISN: (89287) : L from (0x7fffffffed10) -- of Size = (4) -- vaddr (0x7fffffffed10) -- paddr (0x4bdd10) 

-- Tick (33374000) -- ISN: (89288) : L from (0x7fffffffed10) -- of Size = (4) -- vaddr (0x7fffffffed10) -- paddr (0x4bdd10) 

-- Tick (33374500) -- ISN: (89294) : L from (0x7fffffffed10) -- of Size = (4) -- vaddr (0x7fffffffed10) -- paddr (0x4bdd10) 

-- Tick (33376000) -- ISN: (89293) : S -> 0x(3d) at (0x6bc534) -- Size = (4) -- vaddr (0x6bc534) -- paddr (0xbc534) 

-- Tick (33376000) -- ISN: (89297) : S -> 0x(3e) at (0x7fffffffed10) -- Size = (4) -- vaddr (0x7fffffffed10) -- paddr (0x4bdd10) 

-- Tick (33376500) -- ISN: (89298) : L from (0x7fffffffed10) -- of Size = (4) -- vaddr (0x7fffffffed10) -- paddr (0x4bdd10) 

-- Tick (33376500) -- ISN: (89304) : L from (0x7fffffffed10) -- of Size = (4) -- vaddr (0x7fffffffed10) -- paddr (0x4bdd10) 

-- Tick (33376500) -- ISN: (89305) : L from (0x7fffffffed10) -- of Size = (4) -- vaddr (0x7fffffffed10) -- paddr (0x4bdd10) 

-- Tick (33376500) -- ISN: (89311) : L from (0x7fffffffed10) -- of Size = (4) -- vaddr (0x7fffffffed10) -- paddr (0x4bdd10) 

-- Tick (33378000) -- ISN: (89314) : S -> 0x(3f) at (0x7fffffffed10) -- Size = (4) -- vaddr (0x7fffffffed10) -- paddr (0x4bdd10) 

-- Tick (33378500) -- ISN: (89310) : S -> 0x(3e) at (0x6bc538) -- Size = (4) -- vaddr (0x6bc538) -- paddr (0xbc538) 

-- Tick (33378500) -- ISN: (89315) : L from (0x7fffffffed10) -- of Size = (4) -- vaddr (0x7fffffffed10) -- paddr (0x4bdd10) 

-- Tick (33378500) -- ISN: (89321) : L from (0x7fffffffed10) -- of Size = (4) -- vaddr (0x7fffffffed10) -- paddr (0x4bdd10) 

-- Tick (33378500) -- ISN: (89322) : L from (0x7fffffffed10) -- of Size = (4) -- vaddr (0x7fffffffed10) -- paddr (0x4bdd10) 

-- Tick (33379000) -- ISN: (89328) : L from (0x7fffffffed10) -- of Size = (4) -- vaddr (0x7fffffffed10) -- paddr (0x4bdd10) 

-- Tick (33380500) -- ISN: (89327) : S -> 0x(3f) at (0x6bc53c) -- Size = (4) -- vaddr (0x6bc53c) -- paddr (0xbc53c) 

-- Tick (33380500) -- ISN: (89331) : S -> 0x(40) at (0x7fffffffed10) -- Size = (4) -- vaddr (0x7fffffffed10) -- paddr (0x4bdd10) 

-- Tick (33381000) -- ISN: (89332) : L from (0x7fffffffed10) -- of Size = (4) -- vaddr (0x7fffffffed10) -- paddr (0x4bdd10) 

-- Tick (33381000) -- ISN: (89338) : L from (0x7fffffffed10) -- of Size = (4) -- vaddr (0x7fffffffed10) -- paddr (0x4bdd10) 

-- Tick (33381000) -- ISN: (89339) : L from (0x7fffffffed10) -- of Size = (4) -- vaddr (0x7fffffffed10) -- paddr (0x4bdd10) 

-- Tick (33381000) -- ISN: (89345) : L from (0x7fffffffed10) -- of Size = (4) -- vaddr (0x7fffffffed10) -- paddr (0x4bdd10) 

-- Tick (33383000) -- ISN: (89344) : S -> 0x(40) at (0x6bc540) -- Size = (4) -- vaddr (0x6bc540) -- paddr (0xbc540) 

-- Tick (33428000) -- ISN: (89348) : S -> 0x(41) at (0x7fffffffed10) -- Size = (4) -- vaddr (0x7fffffffed10) -- paddr (0x4bdd10) 

-- Tick (33428500) -- ISN: (89349) : L from (0x7fffffffed10) -- of Size = (4) -- vaddr (0x7fffffffed10) -- paddr (0x4bdd10) 

-- Tick (33428500) -- ISN: (89355) : L from (0x7fffffffed10) -- of Size = (4) -- vaddr (0x7fffffffed10) -- paddr (0x4bdd10) 

-- Tick (33428500) -- ISN: (89356) : L from (0x7fffffffed10) -- of Size = (4) -- vaddr (0x7fffffffed10) -- paddr (0x4bdd10) 

-- Tick (33429000) -- ISN: (89362) : L from (0x7fffffffed10) -- of Size = (4) -- vaddr (0x7fffffffed10) -- paddr (0x4bdd10) 

-- Tick (33430500) -- ISN: (89361) : S -> 0x(41) at (0x6bc544) -- Size = (4) -- vaddr (0x6bc544) -- paddr (0xbc544) 

-- Tick (33430500) -- ISN: (89365) : S -> 0x(42) at (0x7fffffffed10) -- Size = (4) -- vaddr (0x7fffffffed10) -- paddr (0x4bdd10) 

-- Tick (33431000) -- ISN: (89366) : L from (0x7fffffffed10) -- of Size = (4) -- vaddr (0x7fffffffed10) -- paddr (0x4bdd10) 

-- Tick (33431000) -- ISN: (89372) : L from (0x7fffffffed10) -- of Size = (4) -- vaddr (0x7fffffffed10) -- paddr (0x4bdd10) 

-- Tick (33431000) -- ISN: (89373) : L from (0x7fffffffed10) -- of Size = (4) -- vaddr (0x7fffffffed10) -- paddr (0x4bdd10) 

-- Tick (33431000) -- ISN: (89379) : L from (0x7fffffffed10) -- of Size = (4) -- vaddr (0x7fffffffed10) -- paddr (0x4bdd10) 

-- Tick (33433000) -- ISN: (89378) : S -> 0x(42) at (0x6bc548) -- Size = (4) -- vaddr (0x6bc548) -- paddr (0xbc548) 

-- Tick (33433000) -- ISN: (89382) : S -> 0x(43) at (0x7fffffffed10) -- Size = (4) -- vaddr (0x7fffffffed10) -- paddr (0x4bdd10) 

-- Tick (33433500) -- ISN: (89383) : L from (0x7fffffffed10) -- of Size = (4) -- vaddr (0x7fffffffed10) -- paddr (0x4bdd10) 

-- Tick (33433500) -- ISN: (89389) : L from (0x7fffffffed10) -- of Size = (4) -- vaddr (0x7fffffffed10) -- paddr (0x4bdd10) 

-- Tick (33433500) -- ISN: (89390) : L from (0x7fffffffed10) -- of Size = (4) -- vaddr (0x7fffffffed10) -- paddr (0x4bdd10) 

-- Tick (33434000) -- ISN: (89396) : L from (0x7fffffffed10) -- of Size = (4) -- vaddr (0x7fffffffed10) -- paddr (0x4bdd10) 

-- Tick (33435500) -- ISN: (89395) : S -> 0x(43) at (0x6bc54c) -- Size = (4) -- vaddr (0x6bc54c) -- paddr (0xbc54c) 

-- Tick (33435500) -- ISN: (89399) : S -> 0x(44) at (0x7fffffffed10) -- Size = (4) -- vaddr (0x7fffffffed10) -- paddr (0x4bdd10) 

-- Tick (33436000) -- ISN: (89400) : L from (0x7fffffffed10) -- of Size = (4) -- vaddr (0x7fffffffed10) -- paddr (0x4bdd10) 

-- Tick (33436000) -- ISN: (89406) : L from (0x7fffffffed10) -- of Size = (4) -- vaddr (0x7fffffffed10) -- paddr (0x4bdd10) 

-- Tick (33436000) -- ISN: (89407) : L from (0x7fffffffed10) -- of Size = (4) -- vaddr (0x7fffffffed10) -- paddr (0x4bdd10) 

-- Tick (33436000) -- ISN: (89413) : L from (0x7fffffffed10) -- of Size = (4) -- vaddr (0x7fffffffed10) -- paddr (0x4bdd10) 

-- Tick (33437500) -- ISN: (89416) : S -> 0x(45) at (0x7fffffffed10) -- Size = (4) -- vaddr (0x7fffffffed10) -- paddr (0x4bdd10) 

-- Tick (33438000) -- ISN: (89412) : S -> 0x(44) at (0x6bc550) -- Size = (4) -- vaddr (0x6bc550) -- paddr (0xbc550) 

-- Tick (33438000) -- ISN: (89417) : L from (0x7fffffffed10) -- of Size = (4) -- vaddr (0x7fffffffed10) -- paddr (0x4bdd10) 

-- Tick (33438000) -- ISN: (89423) : L from (0x7fffffffed10) -- of Size = (4) -- vaddr (0x7fffffffed10) -- paddr (0x4bdd10) 

-- Tick (33438000) -- ISN: (89424) : L from (0x7fffffffed10) -- of Size = (4) -- vaddr (0x7fffffffed10) -- paddr (0x4bdd10) 

-- Tick (33438500) -- ISN: (89430) : L from (0x7fffffffed10) -- of Size = (4) -- vaddr (0x7fffffffed10) -- paddr (0x4bdd10) 

-- Tick (33440000) -- ISN: (89429) : S -> 0x(45) at (0x6bc554) -- Size = (4) -- vaddr (0x6bc554) -- paddr (0xbc554) 

-- Tick (33440000) -- ISN: (89433) : S -> 0x(46) at (0x7fffffffed10) -- Size = (4) -- vaddr (0x7fffffffed10) -- paddr (0x4bdd10) 

-- Tick (33440500) -- ISN: (89434) : L from (0x7fffffffed10) -- of Size = (4) -- vaddr (0x7fffffffed10) -- paddr (0x4bdd10) 

-- Tick (33440500) -- ISN: (89440) : L from (0x7fffffffed10) -- of Size = (4) -- vaddr (0x7fffffffed10) -- paddr (0x4bdd10) 

-- Tick (33440500) -- ISN: (89441) : L from (0x7fffffffed10) -- of Size = (4) -- vaddr (0x7fffffffed10) -- paddr (0x4bdd10) 

-- Tick (33440500) -- ISN: (89447) : L from (0x7fffffffed10) -- of Size = (4) -- vaddr (0x7fffffffed10) -- paddr (0x4bdd10) 

-- Tick (33442000) -- ISN: (89450) : S -> 0x(47) at (0x7fffffffed10) -- Size = (4) -- vaddr (0x7fffffffed10) -- paddr (0x4bdd10) 

-- Tick (33442500) -- ISN: (89446) : S -> 0x(46) at (0x6bc558) -- Size = (4) -- vaddr (0x6bc558) -- paddr (0xbc558) 

-- Tick (33442500) -- ISN: (89451) : L from (0x7fffffffed10) -- of Size = (4) -- vaddr (0x7fffffffed10) -- paddr (0x4bdd10) 

-- Tick (33442500) -- ISN: (89457) : L from (0x7fffffffed10) -- of Size = (4) -- vaddr (0x7fffffffed10) -- paddr (0x4bdd10) 

-- Tick (33442500) -- ISN: (89458) : L from (0x7fffffffed10) -- of Size = (4) -- vaddr (0x7fffffffed10) -- paddr (0x4bdd10) 

-- Tick (33443000) -- ISN: (89464) : L from (0x7fffffffed10) -- of Size = (4) -- vaddr (0x7fffffffed10) -- paddr (0x4bdd10) 

-- Tick (33444500) -- ISN: (89463) : S -> 0x(47) at (0x6bc55c) -- Size = (4) -- vaddr (0x6bc55c) -- paddr (0xbc55c) 

-- Tick (33444500) -- ISN: (89467) : S -> 0x(48) at (0x7fffffffed10) -- Size = (4) -- vaddr (0x7fffffffed10) -- paddr (0x4bdd10) 

-- Tick (33445000) -- ISN: (89468) : L from (0x7fffffffed10) -- of Size = (4) -- vaddr (0x7fffffffed10) -- paddr (0x4bdd10) 

-- Tick (33445000) -- ISN: (89474) : L from (0x7fffffffed10) -- of Size = (4) -- vaddr (0x7fffffffed10) -- paddr (0x4bdd10) 

-- Tick (33445000) -- ISN: (89475) : L from (0x7fffffffed10) -- of Size = (4) -- vaddr (0x7fffffffed10) -- paddr (0x4bdd10) 

-- Tick (33445000) -- ISN: (89481) : L from (0x7fffffffed10) -- of Size = (4) -- vaddr (0x7fffffffed10) -- paddr (0x4bdd10) 

-- Tick (33446500) -- ISN: (89484) : S -> 0x(49) at (0x7fffffffed10) -- Size = (4) -- vaddr (0x7fffffffed10) -- paddr (0x4bdd10) 

-- Tick (33447000) -- ISN: (89480) : S -> 0x(48) at (0x6bc560) -- Size = (4) -- vaddr (0x6bc560) -- paddr (0xbc560) 

-- Tick (33447000) -- ISN: (89485) : L from (0x7fffffffed10) -- of Size = (4) -- vaddr (0x7fffffffed10) -- paddr (0x4bdd10) 

-- Tick (33447000) -- ISN: (89491) : L from (0x7fffffffed10) -- of Size = (4) -- vaddr (0x7fffffffed10) -- paddr (0x4bdd10) 

-- Tick (33447000) -- ISN: (89492) : L from (0x7fffffffed10) -- of Size = (4) -- vaddr (0x7fffffffed10) -- paddr (0x4bdd10) 

-- Tick (33447500) -- ISN: (89498) : L from (0x7fffffffed10) -- of Size = (4) -- vaddr (0x7fffffffed10) -- paddr (0x4bdd10) 

-- Tick (33449000) -- ISN: (89497) : S -> 0x(49) at (0x6bc564) -- Size = (4) -- vaddr (0x6bc564) -- paddr (0xbc564) 

-- Tick (33449000) -- ISN: (89501) : S -> 0x(4a) at (0x7fffffffed10) -- Size = (4) -- vaddr (0x7fffffffed10) -- paddr (0x4bdd10) 

-- Tick (33449500) -- ISN: (89502) : L from (0x7fffffffed10) -- of Size = (4) -- vaddr (0x7fffffffed10) -- paddr (0x4bdd10) 

-- Tick (33449500) -- ISN: (89508) : L from (0x7fffffffed10) -- of Size = (4) -- vaddr (0x7fffffffed10) -- paddr (0x4bdd10) 

-- Tick (33449500) -- ISN: (89509) : L from (0x7fffffffed10) -- of Size = (4) -- vaddr (0x7fffffffed10) -- paddr (0x4bdd10) 

-- Tick (33449500) -- ISN: (89515) : L from (0x7fffffffed10) -- of Size = (4) -- vaddr (0x7fffffffed10) -- paddr (0x4bdd10) 

-- Tick (33451000) -- ISN: (89518) : S -> 0x(4b) at (0x7fffffffed10) -- Size = (4) -- vaddr (0x7fffffffed10) -- paddr (0x4bdd10) 

-- Tick (33451500) -- ISN: (89514) : S -> 0x(4a) at (0x6bc568) -- Size = (4) -- vaddr (0x6bc568) -- paddr (0xbc568) 

-- Tick (33451500) -- ISN: (89519) : L from (0x7fffffffed10) -- of Size = (4) -- vaddr (0x7fffffffed10) -- paddr (0x4bdd10) 

-- Tick (33451500) -- ISN: (89525) : L from (0x7fffffffed10) -- of Size = (4) -- vaddr (0x7fffffffed10) -- paddr (0x4bdd10) 

-- Tick (33451500) -- ISN: (89526) : L from (0x7fffffffed10) -- of Size = (4) -- vaddr (0x7fffffffed10) -- paddr (0x4bdd10) 

-- Tick (33452000) -- ISN: (89532) : L from (0x7fffffffed10) -- of Size = (4) -- vaddr (0x7fffffffed10) -- paddr (0x4bdd10) 

-- Tick (33453500) -- ISN: (89531) : S -> 0x(4b) at (0x6bc56c) -- Size = (4) -- vaddr (0x6bc56c) -- paddr (0xbc56c) 

-- Tick (33453500) -- ISN: (89535) : S -> 0x(4c) at (0x7fffffffed10) -- Size = (4) -- vaddr (0x7fffffffed10) -- paddr (0x4bdd10) 

-- Tick (33454000) -- ISN: (89536) : L from (0x7fffffffed10) -- of Size = (4) -- vaddr (0x7fffffffed10) -- paddr (0x4bdd10) 

-- Tick (33454000) -- ISN: (89542) : L from (0x7fffffffed10) -- of Size = (4) -- vaddr (0x7fffffffed10) -- paddr (0x4bdd10) 

-- Tick (33454000) -- ISN: (89543) : L from (0x7fffffffed10) -- of Size = (4) -- vaddr (0x7fffffffed10) -- paddr (0x4bdd10) 

-- Tick (33454000) -- ISN: (89549) : L from (0x7fffffffed10) -- of Size = (4) -- vaddr (0x7fffffffed10) -- paddr (0x4bdd10) 

-- Tick (33455500) -- ISN: (89552) : S -> 0x(4d) at (0x7fffffffed10) -- Size = (4) -- vaddr (0x7fffffffed10) -- paddr (0x4bdd10) 

-- Tick (33456000) -- ISN: (89548) : S -> 0x(4c) at (0x6bc570) -- Size = (4) -- vaddr (0x6bc570) -- paddr (0xbc570) 

-- Tick (33456000) -- ISN: (89553) : L from (0x7fffffffed10) -- of Size = (4) -- vaddr (0x7fffffffed10) -- paddr (0x4bdd10) 

-- Tick (33456000) -- ISN: (89559) : L from (0x7fffffffed10) -- of Size = (4) -- vaddr (0x7fffffffed10) -- paddr (0x4bdd10) 

-- Tick (33456000) -- ISN: (89560) : L from (0x7fffffffed10) -- of Size = (4) -- vaddr (0x7fffffffed10) -- paddr (0x4bdd10) 

-- Tick (33456500) -- ISN: (89566) : L from (0x7fffffffed10) -- of Size = (4) -- vaddr (0x7fffffffed10) -- paddr (0x4bdd10) 

-- Tick (33458000) -- ISN: (89565) : S -> 0x(4d) at (0x6bc574) -- Size = (4) -- vaddr (0x6bc574) -- paddr (0xbc574) 

-- Tick (33458000) -- ISN: (89569) : S -> 0x(4e) at (0x7fffffffed10) -- Size = (4) -- vaddr (0x7fffffffed10) -- paddr (0x4bdd10) 

-- Tick (33458500) -- ISN: (89570) : L from (0x7fffffffed10) -- of Size = (4) -- vaddr (0x7fffffffed10) -- paddr (0x4bdd10) 

-- Tick (33458500) -- ISN: (89576) : L from (0x7fffffffed10) -- of Size = (4) -- vaddr (0x7fffffffed10) -- paddr (0x4bdd10) 

-- Tick (33458500) -- ISN: (89577) : L from (0x7fffffffed10) -- of Size = (4) -- vaddr (0x7fffffffed10) -- paddr (0x4bdd10) 

-- Tick (33458500) -- ISN: (89583) : L from (0x7fffffffed10) -- of Size = (4) -- vaddr (0x7fffffffed10) -- paddr (0x4bdd10) 

-- Tick (33460000) -- ISN: (89586) : S -> 0x(4f) at (0x7fffffffed10) -- Size = (4) -- vaddr (0x7fffffffed10) -- paddr (0x4bdd10) 

-- Tick (33460500) -- ISN: (89582) : S -> 0x(4e) at (0x6bc578) -- Size = (4) -- vaddr (0x6bc578) -- paddr (0xbc578) 

-- Tick (33460500) -- ISN: (89587) : L from (0x7fffffffed10) -- of Size = (4) -- vaddr (0x7fffffffed10) -- paddr (0x4bdd10) 

-- Tick (33460500) -- ISN: (89593) : L from (0x7fffffffed10) -- of Size = (4) -- vaddr (0x7fffffffed10) -- paddr (0x4bdd10) 

-- Tick (33460500) -- ISN: (89594) : L from (0x7fffffffed10) -- of Size = (4) -- vaddr (0x7fffffffed10) -- paddr (0x4bdd10) 

-- Tick (33461000) -- ISN: (89600) : L from (0x7fffffffed10) -- of Size = (4) -- vaddr (0x7fffffffed10) -- paddr (0x4bdd10) 

-- Tick (33462500) -- ISN: (89599) : S -> 0x(4f) at (0x6bc57c) -- Size = (4) -- vaddr (0x6bc57c) -- paddr (0xbc57c) 

-- Tick (33462500) -- ISN: (89603) : S -> 0x(50) at (0x7fffffffed10) -- Size = (4) -- vaddr (0x7fffffffed10) -- paddr (0x4bdd10) 

-- Tick (33463000) -- ISN: (89604) : L from (0x7fffffffed10) -- of Size = (4) -- vaddr (0x7fffffffed10) -- paddr (0x4bdd10) 

-- Tick (33463000) -- ISN: (89610) : L from (0x7fffffffed10) -- of Size = (4) -- vaddr (0x7fffffffed10) -- paddr (0x4bdd10) 

-- Tick (33463000) -- ISN: (89611) : L from (0x7fffffffed10) -- of Size = (4) -- vaddr (0x7fffffffed10) -- paddr (0x4bdd10) 

-- Tick (33463000) -- ISN: (89617) : L from (0x7fffffffed10) -- of Size = (4) -- vaddr (0x7fffffffed10) -- paddr (0x4bdd10) 

-- Tick (33465000) -- ISN: (89616) : S -> 0x(50) at (0x6bc580) -- Size = (4) -- vaddr (0x6bc580) -- paddr (0xbc580) 

-- Tick (33510000) -- ISN: (89620) : S -> 0x(51) at (0x7fffffffed10) -- Size = (4) -- vaddr (0x7fffffffed10) -- paddr (0x4bdd10) 

-- Tick (33510500) -- ISN: (89621) : L from (0x7fffffffed10) -- of Size = (4) -- vaddr (0x7fffffffed10) -- paddr (0x4bdd10) 

-- Tick (33510500) -- ISN: (89627) : L from (0x7fffffffed10) -- of Size = (4) -- vaddr (0x7fffffffed10) -- paddr (0x4bdd10) 

-- Tick (33510500) -- ISN: (89628) : L from (0x7fffffffed10) -- of Size = (4) -- vaddr (0x7fffffffed10) -- paddr (0x4bdd10) 

-- Tick (33511000) -- ISN: (89634) : L from (0x7fffffffed10) -- of Size = (4) -- vaddr (0x7fffffffed10) -- paddr (0x4bdd10) 

-- Tick (33512500) -- ISN: (89633) : S -> 0x(51) at (0x6bc584) -- Size = (4) -- vaddr (0x6bc584) -- paddr (0xbc584) 

-- Tick (33512500) -- ISN: (89637) : S -> 0x(52) at (0x7fffffffed10) -- Size = (4) -- vaddr (0x7fffffffed10) -- paddr (0x4bdd10) 

-- Tick (33513000) -- ISN: (89638) : L from (0x7fffffffed10) -- of Size = (4) -- vaddr (0x7fffffffed10) -- paddr (0x4bdd10) 

-- Tick (33513000) -- ISN: (89644) : L from (0x7fffffffed10) -- of Size = (4) -- vaddr (0x7fffffffed10) -- paddr (0x4bdd10) 

-- Tick (33513000) -- ISN: (89645) : L from (0x7fffffffed10) -- of Size = (4) -- vaddr (0x7fffffffed10) -- paddr (0x4bdd10) 

-- Tick (33513000) -- ISN: (89651) : L from (0x7fffffffed10) -- of Size = (4) -- vaddr (0x7fffffffed10) -- paddr (0x4bdd10) 

-- Tick (33515000) -- ISN: (89650) : S -> 0x(52) at (0x6bc588) -- Size = (4) -- vaddr (0x6bc588) -- paddr (0xbc588) 

-- Tick (33515000) -- ISN: (89654) : S -> 0x(53) at (0x7fffffffed10) -- Size = (4) -- vaddr (0x7fffffffed10) -- paddr (0x4bdd10) 

-- Tick (33515500) -- ISN: (89655) : L from (0x7fffffffed10) -- of Size = (4) -- vaddr (0x7fffffffed10) -- paddr (0x4bdd10) 

-- Tick (33515500) -- ISN: (89661) : L from (0x7fffffffed10) -- of Size = (4) -- vaddr (0x7fffffffed10) -- paddr (0x4bdd10) 

-- Tick (33515500) -- ISN: (89662) : L from (0x7fffffffed10) -- of Size = (4) -- vaddr (0x7fffffffed10) -- paddr (0x4bdd10) 

-- Tick (33516000) -- ISN: (89668) : L from (0x7fffffffed10) -- of Size = (4) -- vaddr (0x7fffffffed10) -- paddr (0x4bdd10) 

-- Tick (33517500) -- ISN: (89667) : S -> 0x(53) at (0x6bc58c) -- Size = (4) -- vaddr (0x6bc58c) -- paddr (0xbc58c) 

-- Tick (33517500) -- ISN: (89671) : S -> 0x(54) at (0x7fffffffed10) -- Size = (4) -- vaddr (0x7fffffffed10) -- paddr (0x4bdd10) 

-- Tick (33518000) -- ISN: (89672) : L from (0x7fffffffed10) -- of Size = (4) -- vaddr (0x7fffffffed10) -- paddr (0x4bdd10) 

-- Tick (33518000) -- ISN: (89678) : L from (0x7fffffffed10) -- of Size = (4) -- vaddr (0x7fffffffed10) -- paddr (0x4bdd10) 

-- Tick (33518000) -- ISN: (89679) : L from (0x7fffffffed10) -- of Size = (4) -- vaddr (0x7fffffffed10) -- paddr (0x4bdd10) 

-- Tick (33518000) -- ISN: (89685) : L from (0x7fffffffed10) -- of Size = (4) -- vaddr (0x7fffffffed10) -- paddr (0x4bdd10) 

-- Tick (33519500) -- ISN: (89688) : S -> 0x(55) at (0x7fffffffed10) -- Size = (4) -- vaddr (0x7fffffffed10) -- paddr (0x4bdd10) 

-- Tick (33520000) -- ISN: (89684) : S -> 0x(54) at (0x6bc590) -- Size = (4) -- vaddr (0x6bc590) -- paddr (0xbc590) 

-- Tick (33520000) -- ISN: (89689) : L from (0x7fffffffed10) -- of Size = (4) -- vaddr (0x7fffffffed10) -- paddr (0x4bdd10) 

-- Tick (33520000) -- ISN: (89695) : L from (0x7fffffffed10) -- of Size = (4) -- vaddr (0x7fffffffed10) -- paddr (0x4bdd10) 

-- Tick (33520000) -- ISN: (89696) : L from (0x7fffffffed10) -- of Size = (4) -- vaddr (0x7fffffffed10) -- paddr (0x4bdd10) 

-- Tick (33520500) -- ISN: (89702) : L from (0x7fffffffed10) -- of Size = (4) -- vaddr (0x7fffffffed10) -- paddr (0x4bdd10) 

-- Tick (33522000) -- ISN: (89701) : S -> 0x(55) at (0x6bc594) -- Size = (4) -- vaddr (0x6bc594) -- paddr (0xbc594) 

-- Tick (33522000) -- ISN: (89705) : S -> 0x(56) at (0x7fffffffed10) -- Size = (4) -- vaddr (0x7fffffffed10) -- paddr (0x4bdd10) 

-- Tick (33522500) -- ISN: (89706) : L from (0x7fffffffed10) -- of Size = (4) -- vaddr (0x7fffffffed10) -- paddr (0x4bdd10) 

-- Tick (33522500) -- ISN: (89712) : L from (0x7fffffffed10) -- of Size = (4) -- vaddr (0x7fffffffed10) -- paddr (0x4bdd10) 

-- Tick (33522500) -- ISN: (89713) : L from (0x7fffffffed10) -- of Size = (4) -- vaddr (0x7fffffffed10) -- paddr (0x4bdd10) 

-- Tick (33522500) -- ISN: (89719) : L from (0x7fffffffed10) -- of Size = (4) -- vaddr (0x7fffffffed10) -- paddr (0x4bdd10) 

-- Tick (33524000) -- ISN: (89722) : S -> 0x(57) at (0x7fffffffed10) -- Size = (4) -- vaddr (0x7fffffffed10) -- paddr (0x4bdd10) 

-- Tick (33524500) -- ISN: (89718) : S -> 0x(56) at (0x6bc598) -- Size = (4) -- vaddr (0x6bc598) -- paddr (0xbc598) 

-- Tick (33524500) -- ISN: (89723) : L from (0x7fffffffed10) -- of Size = (4) -- vaddr (0x7fffffffed10) -- paddr (0x4bdd10) 

-- Tick (33524500) -- ISN: (89729) : L from (0x7fffffffed10) -- of Size = (4) -- vaddr (0x7fffffffed10) -- paddr (0x4bdd10) 

-- Tick (33524500) -- ISN: (89730) : L from (0x7fffffffed10) -- of Size = (4) -- vaddr (0x7fffffffed10) -- paddr (0x4bdd10) 

-- Tick (33525000) -- ISN: (89736) : L from (0x7fffffffed10) -- of Size = (4) -- vaddr (0x7fffffffed10) -- paddr (0x4bdd10) 

-- Tick (33526500) -- ISN: (89735) : S -> 0x(57) at (0x6bc59c) -- Size = (4) -- vaddr (0x6bc59c) -- paddr (0xbc59c) 

-- Tick (33526500) -- ISN: (89739) : S -> 0x(58) at (0x7fffffffed10) -- Size = (4) -- vaddr (0x7fffffffed10) -- paddr (0x4bdd10) 

-- Tick (33527000) -- ISN: (89740) : L from (0x7fffffffed10) -- of Size = (4) -- vaddr (0x7fffffffed10) -- paddr (0x4bdd10) 

-- Tick (33527000) -- ISN: (89746) : L from (0x7fffffffed10) -- of Size = (4) -- vaddr (0x7fffffffed10) -- paddr (0x4bdd10) 

-- Tick (33527000) -- ISN: (89747) : L from (0x7fffffffed10) -- of Size = (4) -- vaddr (0x7fffffffed10) -- paddr (0x4bdd10) 

-- Tick (33527000) -- ISN: (89753) : L from (0x7fffffffed10) -- of Size = (4) -- vaddr (0x7fffffffed10) -- paddr (0x4bdd10) 

-- Tick (33528500) -- ISN: (89756) : S -> 0x(59) at (0x7fffffffed10) -- Size = (4) -- vaddr (0x7fffffffed10) -- paddr (0x4bdd10) 

-- Tick (33529000) -- ISN: (89752) : S -> 0x(58) at (0x6bc5a0) -- Size = (4) -- vaddr (0x6bc5a0) -- paddr (0xbc5a0) 

-- Tick (33529000) -- ISN: (89757) : L from (0x7fffffffed10) -- of Size = (4) -- vaddr (0x7fffffffed10) -- paddr (0x4bdd10) 

-- Tick (33529000) -- ISN: (89763) : L from (0x7fffffffed10) -- of Size = (4) -- vaddr (0x7fffffffed10) -- paddr (0x4bdd10) 

-- Tick (33529000) -- ISN: (89764) : L from (0x7fffffffed10) -- of Size = (4) -- vaddr (0x7fffffffed10) -- paddr (0x4bdd10) 

-- Tick (33529500) -- ISN: (89770) : L from (0x7fffffffed10) -- of Size = (4) -- vaddr (0x7fffffffed10) -- paddr (0x4bdd10) 

-- Tick (33531000) -- ISN: (89769) : S -> 0x(59) at (0x6bc5a4) -- Size = (4) -- vaddr (0x6bc5a4) -- paddr (0xbc5a4) 

-- Tick (33531000) -- ISN: (89773) : S -> 0x(5a) at (0x7fffffffed10) -- Size = (4) -- vaddr (0x7fffffffed10) -- paddr (0x4bdd10) 

-- Tick (33531500) -- ISN: (89774) : L from (0x7fffffffed10) -- of Size = (4) -- vaddr (0x7fffffffed10) -- paddr (0x4bdd10) 

-- Tick (33531500) -- ISN: (89780) : L from (0x7fffffffed10) -- of Size = (4) -- vaddr (0x7fffffffed10) -- paddr (0x4bdd10) 

-- Tick (33531500) -- ISN: (89781) : L from (0x7fffffffed10) -- of Size = (4) -- vaddr (0x7fffffffed10) -- paddr (0x4bdd10) 

-- Tick (33531500) -- ISN: (89787) : L from (0x7fffffffed10) -- of Size = (4) -- vaddr (0x7fffffffed10) -- paddr (0x4bdd10) 

-- Tick (33533000) -- ISN: (89790) : S -> 0x(5b) at (0x7fffffffed10) -- Size = (4) -- vaddr (0x7fffffffed10) -- paddr (0x4bdd10) 

-- Tick (33533500) -- ISN: (89786) : S -> 0x(5a) at (0x6bc5a8) -- Size = (4) -- vaddr (0x6bc5a8) -- paddr (0xbc5a8) 

-- Tick (33533500) -- ISN: (89791) : L from (0x7fffffffed10) -- of Size = (4) -- vaddr (0x7fffffffed10) -- paddr (0x4bdd10) 

-- Tick (33533500) -- ISN: (89797) : L from (0x7fffffffed10) -- of Size = (4) -- vaddr (0x7fffffffed10) -- paddr (0x4bdd10) 

-- Tick (33533500) -- ISN: (89798) : L from (0x7fffffffed10) -- of Size = (4) -- vaddr (0x7fffffffed10) -- paddr (0x4bdd10) 

-- Tick (33534000) -- ISN: (89804) : L from (0x7fffffffed10) -- of Size = (4) -- vaddr (0x7fffffffed10) -- paddr (0x4bdd10) 

-- Tick (33535500) -- ISN: (89803) : S -> 0x(5b) at (0x6bc5ac) -- Size = (4) -- vaddr (0x6bc5ac) -- paddr (0xbc5ac) 

-- Tick (33535500) -- ISN: (89807) : S -> 0x(5c) at (0x7fffffffed10) -- Size = (4) -- vaddr (0x7fffffffed10) -- paddr (0x4bdd10) 

-- Tick (33536000) -- ISN: (89808) : L from (0x7fffffffed10) -- of Size = (4) -- vaddr (0x7fffffffed10) -- paddr (0x4bdd10) 

-- Tick (33536000) -- ISN: (89814) : L from (0x7fffffffed10) -- of Size = (4) -- vaddr (0x7fffffffed10) -- paddr (0x4bdd10) 

-- Tick (33536000) -- ISN: (89815) : L from (0x7fffffffed10) -- of Size = (4) -- vaddr (0x7fffffffed10) -- paddr (0x4bdd10) 

-- Tick (33536000) -- ISN: (89821) : L from (0x7fffffffed10) -- of Size = (4) -- vaddr (0x7fffffffed10) -- paddr (0x4bdd10) 

-- Tick (33537500) -- ISN: (89824) : S -> 0x(5d) at (0x7fffffffed10) -- Size = (4) -- vaddr (0x7fffffffed10) -- paddr (0x4bdd10) 

-- Tick (33538000) -- ISN: (89820) : S -> 0x(5c) at (0x6bc5b0) -- Size = (4) -- vaddr (0x6bc5b0) -- paddr (0xbc5b0) 

-- Tick (33538000) -- ISN: (89825) : L from (0x7fffffffed10) -- of Size = (4) -- vaddr (0x7fffffffed10) -- paddr (0x4bdd10) 

-- Tick (33538000) -- ISN: (89831) : L from (0x7fffffffed10) -- of Size = (4) -- vaddr (0x7fffffffed10) -- paddr (0x4bdd10) 

-- Tick (33538000) -- ISN: (89832) : L from (0x7fffffffed10) -- of Size = (4) -- vaddr (0x7fffffffed10) -- paddr (0x4bdd10) 

-- Tick (33538500) -- ISN: (89838) : L from (0x7fffffffed10) -- of Size = (4) -- vaddr (0x7fffffffed10) -- paddr (0x4bdd10) 

-- Tick (33540000) -- ISN: (89837) : S -> 0x(5d) at (0x6bc5b4) -- Size = (4) -- vaddr (0x6bc5b4) -- paddr (0xbc5b4) 

-- Tick (33540000) -- ISN: (89841) : S -> 0x(5e) at (0x7fffffffed10) -- Size = (4) -- vaddr (0x7fffffffed10) -- paddr (0x4bdd10) 

-- Tick (33540500) -- ISN: (89842) : L from (0x7fffffffed10) -- of Size = (4) -- vaddr (0x7fffffffed10) -- paddr (0x4bdd10) 

-- Tick (33540500) -- ISN: (89848) : L from (0x7fffffffed10) -- of Size = (4) -- vaddr (0x7fffffffed10) -- paddr (0x4bdd10) 

-- Tick (33540500) -- ISN: (89849) : L from (0x7fffffffed10) -- of Size = (4) -- vaddr (0x7fffffffed10) -- paddr (0x4bdd10) 

-- Tick (33540500) -- ISN: (89855) : L from (0x7fffffffed10) -- of Size = (4) -- vaddr (0x7fffffffed10) -- paddr (0x4bdd10) 

-- Tick (33542000) -- ISN: (89858) : S -> 0x(5f) at (0x7fffffffed10) -- Size = (4) -- vaddr (0x7fffffffed10) -- paddr (0x4bdd10) 

-- Tick (33542500) -- ISN: (89854) : S -> 0x(5e) at (0x6bc5b8) -- Size = (4) -- vaddr (0x6bc5b8) -- paddr (0xbc5b8) 

-- Tick (33542500) -- ISN: (89859) : L from (0x7fffffffed10) -- of Size = (4) -- vaddr (0x7fffffffed10) -- paddr (0x4bdd10) 

-- Tick (33542500) -- ISN: (89865) : L from (0x7fffffffed10) -- of Size = (4) -- vaddr (0x7fffffffed10) -- paddr (0x4bdd10) 

-- Tick (33542500) -- ISN: (89866) : L from (0x7fffffffed10) -- of Size = (4) -- vaddr (0x7fffffffed10) -- paddr (0x4bdd10) 

-- Tick (33543000) -- ISN: (89872) : L from (0x7fffffffed10) -- of Size = (4) -- vaddr (0x7fffffffed10) -- paddr (0x4bdd10) 

-- Tick (33544500) -- ISN: (89871) : S -> 0x(5f) at (0x6bc5bc) -- Size = (4) -- vaddr (0x6bc5bc) -- paddr (0xbc5bc) 

-- Tick (33544500) -- ISN: (89875) : S -> 0x(60) at (0x7fffffffed10) -- Size = (4) -- vaddr (0x7fffffffed10) -- paddr (0x4bdd10) 

-- Tick (33545000) -- ISN: (89876) : L from (0x7fffffffed10) -- of Size = (4) -- vaddr (0x7fffffffed10) -- paddr (0x4bdd10) 

-- Tick (33545000) -- ISN: (89882) : L from (0x7fffffffed10) -- of Size = (4) -- vaddr (0x7fffffffed10) -- paddr (0x4bdd10) 

-- Tick (33545000) -- ISN: (89883) : L from (0x7fffffffed10) -- of Size = (4) -- vaddr (0x7fffffffed10) -- paddr (0x4bdd10) 

-- Tick (33545000) -- ISN: (89889) : L from (0x7fffffffed10) -- of Size = (4) -- vaddr (0x7fffffffed10) -- paddr (0x4bdd10) 

-- Tick (33547000) -- ISN: (89888) : S -> 0x(60) at (0x6bc5c0) -- Size = (4) -- vaddr (0x6bc5c0) -- paddr (0xbc5c0) 

-- Tick (33592000) -- ISN: (89892) : S -> 0x(61) at (0x7fffffffed10) -- Size = (4) -- vaddr (0x7fffffffed10) -- paddr (0x4bdd10) 

-- Tick (33592500) -- ISN: (89893) : L from (0x7fffffffed10) -- of Size = (4) -- vaddr (0x7fffffffed10) -- paddr (0x4bdd10) 

-- Tick (33592500) -- ISN: (89899) : L from (0x7fffffffed10) -- of Size = (4) -- vaddr (0x7fffffffed10) -- paddr (0x4bdd10) 

-- Tick (33592500) -- ISN: (89900) : L from (0x7fffffffed10) -- of Size = (4) -- vaddr (0x7fffffffed10) -- paddr (0x4bdd10) 

-- Tick (33593000) -- ISN: (89906) : L from (0x7fffffffed10) -- of Size = (4) -- vaddr (0x7fffffffed10) -- paddr (0x4bdd10) 

-- Tick (33594500) -- ISN: (89905) : S -> 0x(61) at (0x6bc5c4) -- Size = (4) -- vaddr (0x6bc5c4) -- paddr (0xbc5c4) 

-- Tick (33594500) -- ISN: (89909) : S -> 0x(62) at (0x7fffffffed10) -- Size = (4) -- vaddr (0x7fffffffed10) -- paddr (0x4bdd10) 

-- Tick (33595000) -- ISN: (89910) : L from (0x7fffffffed10) -- of Size = (4) -- vaddr (0x7fffffffed10) -- paddr (0x4bdd10) 

-- Tick (33595000) -- ISN: (89916) : L from (0x7fffffffed10) -- of Size = (4) -- vaddr (0x7fffffffed10) -- paddr (0x4bdd10) 

-- Tick (33595000) -- ISN: (89917) : L from (0x7fffffffed10) -- of Size = (4) -- vaddr (0x7fffffffed10) -- paddr (0x4bdd10) 

-- Tick (33595000) -- ISN: (89923) : L from (0x7fffffffed10) -- of Size = (4) -- vaddr (0x7fffffffed10) -- paddr (0x4bdd10) 

-- Tick (33597000) -- ISN: (89922) : S -> 0x(62) at (0x6bc5c8) -- Size = (4) -- vaddr (0x6bc5c8) -- paddr (0xbc5c8) 

-- Tick (33597000) -- ISN: (89926) : S -> 0x(63) at (0x7fffffffed10) -- Size = (4) -- vaddr (0x7fffffffed10) -- paddr (0x4bdd10) 

-- Tick (33597500) -- ISN: (89927) : L from (0x7fffffffed10) -- of Size = (4) -- vaddr (0x7fffffffed10) -- paddr (0x4bdd10) 

-- Tick (33597500) -- ISN: (89933) : L from (0x7fffffffed10) -- of Size = (4) -- vaddr (0x7fffffffed10) -- paddr (0x4bdd10) 

-- Tick (33597500) -- ISN: (89934) : L from (0x7fffffffed10) -- of Size = (4) -- vaddr (0x7fffffffed10) -- paddr (0x4bdd10) 

-- Tick (33598000) -- ISN: (89940) : L from (0x7fffffffed10) -- of Size = (4) -- vaddr (0x7fffffffed10) -- paddr (0x4bdd10) 

-- Tick (33599500) -- ISN: (89939) : S -> 0x(63) at (0x6bc5cc) -- Size = (4) -- vaddr (0x6bc5cc) -- paddr (0xbc5cc) 

-- Tick (33599500) -- ISN: (89943) : S -> 0x(64) at (0x7fffffffed10) -- Size = (4) -- vaddr (0x7fffffffed10) -- paddr (0x4bdd10) 

-- Tick (33600000) -- ISN: (89944) : L from (0x7fffffffed10) -- of Size = (4) -- vaddr (0x7fffffffed10) -- paddr (0x4bdd10) 

-- Tick (33600000) -- ISN: (89950) : L from (0x7fffffffed10) -- of Size = (4) -- vaddr (0x7fffffffed10) -- paddr (0x4bdd10) 

-- Tick (33600000) -- ISN: (89951) : L from (0x7fffffffed10) -- of Size = (4) -- vaddr (0x7fffffffed10) -- paddr (0x4bdd10) 

-- Tick (33600000) -- ISN: (89957) : L from (0x7fffffffed10) -- of Size = (4) -- vaddr (0x7fffffffed10) -- paddr (0x4bdd10) 

-- Tick (33601500) -- ISN: (89960) : S -> 0x(65) at (0x7fffffffed10) -- Size = (4) -- vaddr (0x7fffffffed10) -- paddr (0x4bdd10) 

-- Tick (33602000) -- ISN: (89956) : S -> 0x(64) at (0x6bc5d0) -- Size = (4) -- vaddr (0x6bc5d0) -- paddr (0xbc5d0) 

-- Tick (33602000) -- ISN: (89961) : L from (0x7fffffffed10) -- of Size = (4) -- vaddr (0x7fffffffed10) -- paddr (0x4bdd10) 

[...]

-- Tick (34405000) -- ISN: (95860) : L from (0x7fffffffed08) -- of Size = (8) -- vaddr (0x7fffffffed08) -- paddr (0x4bdd08) 

-- Tick (34405500) -- ISN: (95846) : L from (0x6bc5bc) -- of Size = (4) -- vaddr (0x6bc5bc) -- paddr (0xbc5bc) 

-- Tick (34405500) -- ISN: (95863) : L from (0x7fffffffed14) -- of Size = (4) -- vaddr (0x7fffffffed14) -- paddr (0x4bdd14) 

-- Tick (34407000) -- ISN: (95866) : S -> 0x(60) at (0x7fffffffed14) -- Size = (4) -- vaddr (0x7fffffffed14) -- paddr (0x4bdd14) 

-- Tick (34407500) -- ISN: (95850) : L from (0x6bc41f) -- of Size = (1) -- vaddr (0x6bc41f) -- paddr (0xbc41f) 

-- Tick (34407500) -- ISN: (95867) : L from (0x7fffffffed14) -- of Size = (4) -- vaddr (0x7fffffffed14) -- paddr (0x4bdd14) 

-- Tick (34407500) -- ISN: (95873) : L from (0x7fffffffed14) -- of Size = (4) -- vaddr (0x7fffffffed14) -- paddr (0x4bdd14) 

-- Tick (34408500) -- ISN: (95877) : S -> 0x(c2) at (0x7fffffffed08) -- Size = (8) -- vaddr (0x7fffffffed08) -- paddr (0x4bdd08) 

-- Tick (34409000) -- ISN: (95880) : S -> 0x(20) at (0x7fffffffed00) -- Size = (8) -- vaddr (0x7fffffffed00) -- paddr (0x4bdd00) 

-- Tick (34409500) -- ISN: (95885) : L from (0x6b90f0) -- of Size = (4) -- vaddr (0x6b90f0) -- paddr (0xb90f0) 

-- Tick (34410000) -- ISN: (95883) : S -> 0x(60) at (0x7fffffffecfc) -- Size = (4) -- vaddr (0x7fffffffecfc) -- paddr (0x4bdcfc) 

-- Tick (34410500) -- ISN: (95855) : S -> 0x(0) at (0x6bc424) -- Size = (4) -- vaddr (0x6bc424) -- paddr (0xbc424) 

-- Tick (34410500) -- ISN: (95886) : L from (0x7fffffffecfc) -- of Size = (4) -- vaddr (0x7fffffffecfc) -- paddr (0x4bdcfc) 

-- Tick (34410500) -- ISN: (95891) : L from (0x7fffffffecfc) -- of Size = (4) -- vaddr (0x7fffffffecfc) -- paddr (0x4bdcfc) 

-- Tick (34411000) -- ISN: (95907) : L from (0x7fffffffed00) -- of Size = (8) -- vaddr (0x7fffffffed00) -- paddr (0x4bdd00) 

-- Tick (34412000) -- ISN: (95910) : L from (0x7fffffffed08) -- of Size = (8) -- vaddr (0x7fffffffed08) -- paddr (0x4bdd08) 

-- Tick (34412500) -- ISN: (95896) : L from (0x6bc5c0) -- of Size = (4) -- vaddr (0x6bc5c0) -- paddr (0xbc5c0) 

-- Tick (34412500) -- ISN: (95913) : L from (0x7fffffffed14) -- of Size = (4) -- vaddr (0x7fffffffed14) -- paddr (0x4bdd14) 

-- Tick (34414000) -- ISN: (95916) : S -> 0x(61) at (0x7fffffffed14) -- Size = (4) -- vaddr (0x7fffffffed14) -- paddr (0x4bdd14) 

-- Tick (34414500) -- ISN: (95900) : L from (0x6bc420) -- of Size = (1) -- vaddr (0x6bc420) -- paddr (0xbc420) 

-- Tick (34414500) -- ISN: (95917) : L from (0x7fffffffed14) -- of Size = (4) -- vaddr (0x7fffffffed14) -- paddr (0x4bdd14) 

-- Tick (34414500) -- ISN: (95923) : L from (0x7fffffffed14) -- of Size = (4) -- vaddr (0x7fffffffed14) -- paddr (0x4bdd14) 

-- Tick (34415500) -- ISN: (95927) : S -> 0x(c2) at (0x7fffffffed08) -- Size = (8) -- vaddr (0x7fffffffed08) -- paddr (0x4bdd08) 

-- Tick (34416000) -- ISN: (95930) : S -> 0x(20) at (0x7fffffffed00) -- Size = (8) -- vaddr (0x7fffffffed00) -- paddr (0x4bdd00) 

-- Tick (34416500) -- ISN: (95935) : L from (0x6b90f0) -- of Size = (4) -- vaddr (0x6b90f0) -- paddr (0xb90f0) 

-- Tick (34417000) -- ISN: (95933) : S -> 0x(61) at (0x7fffffffecfc) -- Size = (4) -- vaddr (0x7fffffffecfc) -- paddr (0x4bdcfc) 

-- Tick (34417500) -- ISN: (95905) : S -> 0x(0) at (0x6bc424) -- Size = (4) -- vaddr (0x6bc424) -- paddr (0xbc424) 

-- Tick (34417500) -- ISN: (95936) : L from (0x7fffffffecfc) -- of Size = (4) -- vaddr (0x7fffffffecfc) -- paddr (0x4bdcfc) 

-- Tick (34417500) -- ISN: (95941) : L from (0x7fffffffecfc) -- of Size = (4) -- vaddr (0x7fffffffecfc) -- paddr (0x4bdcfc) 

-- Tick (34418000) -- ISN: (95957) : L from (0x7fffffffed00) -- of Size = (8) -- vaddr (0x7fffffffed00) -- paddr (0x4bdd00) 

-- Tick (34419000) -- ISN: (95960) : L from (0x7fffffffed08) -- of Size = (8) -- vaddr (0x7fffffffed08) -- paddr (0x4bdd08) 

-- Tick (34419500) -- ISN: (95946) : L from (0x6bc5c4) -- of Size = (4) -- vaddr (0x6bc5c4) -- paddr (0xbc5c4) 

-- Tick (34419500) -- ISN: (95963) : L from (0x7fffffffed14) -- of Size = (4) -- vaddr (0x7fffffffed14) -- paddr (0x4bdd14) 

-- Tick (34421000) -- ISN: (95966) : S -> 0x(62) at (0x7fffffffed14) -- Size = (4) -- vaddr (0x7fffffffed14) -- paddr (0x4bdd14) 

-- Tick (34421500) -- ISN: (95950) : L from (0x6bc421) -- of Size = (1) -- vaddr (0x6bc421) -- paddr (0xbc421) 

-- Tick (34421500) -- ISN: (95967) : L from (0x7fffffffed14) -- of Size = (4) -- vaddr (0x7fffffffed14) -- paddr (0x4bdd14) 

-- Tick (34421500) -- ISN: (95973) : L from (0x7fffffffed14) -- of Size = (4) -- vaddr (0x7fffffffed14) -- paddr (0x4bdd14) 

-- Tick (34422500) -- ISN: (95977) : S -> 0x(c2) at (0x7fffffffed08) -- Size = (8) -- vaddr (0x7fffffffed08) -- paddr (0x4bdd08) 

-- Tick (34423000) -- ISN: (95980) : S -> 0x(20) at (0x7fffffffed00) -- Size = (8) -- vaddr (0x7fffffffed00) -- paddr (0x4bdd00) 

-- Tick (34423500) -- ISN: (95985) : L from (0x6b90f0) -- of Size = (4) -- vaddr (0x6b90f0) -- paddr (0xb90f0) 

-- Tick (34424000) -- ISN: (95983) : S -> 0x(62) at (0x7fffffffecfc) -- Size = (4) -- vaddr (0x7fffffffecfc) -- paddr (0x4bdcfc) 

-- Tick (34424500) -- ISN: (95955) : S -> 0x(0) at (0x6bc424) -- Size = (4) -- vaddr (0x6bc424) -- paddr (0xbc424) 

-- Tick (34424500) -- ISN: (95986) : L from (0x7fffffffecfc) -- of Size = (4) -- vaddr (0x7fffffffecfc) -- paddr (0x4bdcfc) 

-- Tick (34424500) -- ISN: (95991) : L from (0x7fffffffecfc) -- of Size = (4) -- vaddr (0x7fffffffecfc) -- paddr (0x4bdcfc) 

-- Tick (34425000) -- ISN: (96007) : L from (0x7fffffffed00) -- of Size = (8) -- vaddr (0x7fffffffed00) -- paddr (0x4bdd00) 

-- Tick (34426000) -- ISN: (96010) : L from (0x7fffffffed08) -- of Size = (8) -- vaddr (0x7fffffffed08) -- paddr (0x4bdd08) 

-- Tick (34426500) -- ISN: (95996) : L from (0x6bc5c8) -- of Size = (4) -- vaddr (0x6bc5c8) -- paddr (0xbc5c8) 

-- Tick (34426500) -- ISN: (96013) : L from (0x7fffffffed14) -- of Size = (4) -- vaddr (0x7fffffffed14) -- paddr (0x4bdd14) 

-- Tick (34428000) -- ISN: (96016) : S -> 0x(63) at (0x7fffffffed14) -- Size = (4) -- vaddr (0x7fffffffed14) -- paddr (0x4bdd14) 

-- Tick (34428500) -- ISN: (96000) : L from (0x6bc422) -- of Size = (1) -- vaddr (0x6bc422) -- paddr (0xbc422) 

-- Tick (34428500) -- ISN: (96017) : L from (0x7fffffffed14) -- of Size = (4) -- vaddr (0x7fffffffed14) -- paddr (0x4bdd14) 

-- Tick (34428500) -- ISN: (96023) : L from (0x7fffffffed14) -- of Size = (4) -- vaddr (0x7fffffffed14) -- paddr (0x4bdd14) 

-- Tick (34429500) -- ISN: (96027) : S -> 0x(c2) at (0x7fffffffed08) -- Size = (8) -- vaddr (0x7fffffffed08) -- paddr (0x4bdd08) 

-- Tick (34430000) -- ISN: (96030) : S -> 0x(20) at (0x7fffffffed00) -- Size = (8) -- vaddr (0x7fffffffed00) -- paddr (0x4bdd00) 

-- Tick (34430500) -- ISN: (96035) : L from (0x6b90f0) -- of Size = (4) -- vaddr (0x6b90f0) -- paddr (0xb90f0) 

-- Tick (34431000) -- ISN: (96033) : S -> 0x(63) at (0x7fffffffecfc) -- Size = (4) -- vaddr (0x7fffffffecfc) -- paddr (0x4bdcfc) 

-- Tick (34431500) -- ISN: (96005) : S -> 0x(0) at (0x6bc424) -- Size = (4) -- vaddr (0x6bc424) -- paddr (0xbc424) 

-- Tick (34431500) -- ISN: (96036) : L from (0x7fffffffecfc) -- of Size = (4) -- vaddr (0x7fffffffecfc) -- paddr (0x4bdcfc) 

-- Tick (34431500) -- ISN: (96041) : L from (0x7fffffffecfc) -- of Size = (4) -- vaddr (0x7fffffffecfc) -- paddr (0x4bdcfc) 

-- Tick (34432000) -- ISN: (96057) : L from (0x7fffffffed00) -- of Size = (8) -- vaddr (0x7fffffffed00) -- paddr (0x4bdd00) 

-- Tick (34433000) -- ISN: (96060) : L from (0x7fffffffed08) -- of Size = (8) -- vaddr (0x7fffffffed08) -- paddr (0x4bdd08) 

-- Tick (34433500) -- ISN: (96046) : L from (0x6bc5cc) -- of Size = (4) -- vaddr (0x6bc5cc) -- paddr (0xbc5cc) 

-- Tick (34433500) -- ISN: (96063) : L from (0x7fffffffed14) -- of Size = (4) -- vaddr (0x7fffffffed14) -- paddr (0x4bdd14) 

-- Tick (34435000) -- ISN: (96066) : S -> 0x(64) at (0x7fffffffed14) -- Size = (4) -- vaddr (0x7fffffffed14) -- paddr (0x4bdd14) 

-- Tick (34435500) -- ISN: (96050) : L from (0x6bc423) -- of Size = (1) -- vaddr (0x6bc423) -- paddr (0xbc423) 

-- Tick (34435500) -- ISN: (96067) : L from (0x7fffffffed14) -- of Size = (4) -- vaddr (0x7fffffffed14) -- paddr (0x4bdd14) 

-- Tick (34435500) -- ISN: (96073) : L from (0x7fffffffed14) -- of Size = (4) -- vaddr (0x7fffffffed14) -- paddr (0x4bdd14) 

-- Tick (34436500) -- ISN: (96077) : S -> 0x(c2) at (0x7fffffffed08) -- Size = (8) -- vaddr (0x7fffffffed08) -- paddr (0x4bdd08) 

-- Tick (34437000) -- ISN: (96080) : S -> 0x(20) at (0x7fffffffed00) -- Size = (8) -- vaddr (0x7fffffffed00) -- paddr (0x4bdd00) 

-- Tick (34437500) -- ISN: (96085) : L from (0x6b90f0) -- of Size = (4) -- vaddr (0x6b90f0) -- paddr (0xb90f0) 

-- Sqsh -> ISN (96072)

-- Tick (34438500) -- ISN: (96055) : S -> 0x(0) at (0x6bc424) -- Size = (4) -- vaddr (0x6bc424) -- paddr (0xbc424) 

-- Tick (34442500) -- ISN: (96116) : S -> 0x(dd) at (0x7fffffffed08) -- Size = (8) -- vaddr (0x7fffffffed08) -- paddr (0x4bdd08) 

-- Tick (34442500) -- ISN: (96120) : S -> 0x(0) at (0x7fffffffed10) -- Size = (4) -- vaddr (0x7fffffffed10) -- paddr (0x4bdd10) 

-- Tick (34443000) -- ISN: (96124) : L from (0x7fffffffed10) -- of Size = (4) -- vaddr (0x7fffffffed10) -- paddr (0x4bdd10) 

-- Tick (34443000) -- ISN: (96128) : L from (0x7fffffffed10) -- of Size = (4) -- vaddr (0x7fffffffed10) -- paddr (0x4bdd10) 

-- Sqsh -> ISN (96118)

-- Tick (34447500) -- ISN: (96182) : S -> 0x(20) at (0x7fffffffed00) -- Size = (8) -- vaddr (0x7fffffffed00) -- paddr (0x4bdd00) 

-- Tick (34448000) -- ISN: (96187) : L from (0x6b90f0) -- of Size = (4) -- vaddr (0x6b90f0) -- paddr (0xb90f0) 

-- Tick (34448500) -- ISN: (96185) : S -> 0x(69) at (0x7fffffffecfc) -- Size = (4) -- vaddr (0x7fffffffecfc) -- paddr (0x4bdcfc) 

-- Tick (34449000) -- ISN: (96188) : L from (0x7fffffffecfc) -- of Size = (4) -- vaddr (0x7fffffffecfc) -- paddr (0x4bdcfc) 

-- Tick (34449000) -- ISN: (96193) : L from (0x7fffffffecfc) -- of Size = (4) -- vaddr (0x7fffffffecfc) -- paddr (0x4bdcfc) 

-- Tick (34449500) -- ISN: (96209) : L from (0x7fffffffed00) -- of Size = (8) -- vaddr (0x7fffffffed00) -- paddr (0x4bdd00) 

-- Tick (34450500) -- ISN: (96212) : L from (0x7fffffffed08) -- of Size = (8) -- vaddr (0x7fffffffed08) -- paddr (0x4bdd08) 

-- Tick (34451000) -- ISN: (96198) : L from (0x6bc5e4) -- of Size = (4) -- vaddr (0x6bc5e4) -- paddr (0xbc5e4) 

-- Tick (34451000) -- ISN: (96220) : L from (0x7fffffffed10) -- of Size = (4) -- vaddr (0x7fffffffed10) -- paddr (0x4bdd10) 

-- Sqsh -> ISN (96192)

-- Tick (34457000) -- ISN: (96248) : L from (0x7fffffffed00) -- of Size = (8) -- vaddr (0x7fffffffed00) -- paddr (0x4bdd00) 

-- Tick (34457500) -- ISN: (96251) : L from (0x7fffffffed08) -- of Size = (8) -- vaddr (0x7fffffffed08) -- paddr (0x4bdd08) 

-- Tick (34459000) -- ISN: (96255) : S -> 0x(0) at (0x7fffffffed10) -- Size = (4) -- vaddr (0x7fffffffed10) -- paddr (0x4bdd10) 

-- Tick (34459000) -- ISN: (96259) : L from (0x7fffffffed10) -- of Size = (4) -- vaddr (0x7fffffffed10) -- paddr (0x4bdd10) 

-- Tick (34459000) -- ISN: (96263) : L from (0x7fffffffed10) -- of Size = (4) -- vaddr (0x7fffffffed10) -- paddr (0x4bdd10) 

-- Sqsh -> ISN (96258)

-- Tick (34464500) -- ISN: (96320) : L from (0x7fffffffed10) -- of Size = (4) -- vaddr (0x7fffffffed10) -- paddr (0x4bdd10) 

-- Tick (34465500) -- ISN: (96333) : L from (0x7fffffffed18) -- of Size = (8) -- vaddr (0x7fffffffed18) -- paddr (0x4bdd18) 

-- Tick (34465500) -- ISN: (96334) : L from (0xabd8a8) -- of Size = (8) -- vaddr (0xabd8a8) -- paddr (0x4bf8a8) 

-- Tick (34466000) -- ISN: (96329) : S -> 0x(1) at (0x7fffffffed08) -- Size = (8) -- vaddr (0x7fffffffed08) -- paddr (0x4bdd08) 

-- Tick (34466500) -- ISN: (96341) : S -> 0x(1a) at (0x7fffffffed00) -- Size = (8) -- vaddr (0x7fffffffed00) -- paddr (0x4bdd00) 

-- Sqsh -> ISN (96331)

-- Sqsh -> ISN (96325)

-- Tick (34473000) -- ISN: (96392) : L from (0x7fffffffed10) -- of Size = (4) -- vaddr (0x7fffffffed10) -- paddr (0x4bdd10) 

-- Tick (34473000) -- ISN: (96396) : L from (0x7fffffffed10) -- of Size = (4) -- vaddr (0x7fffffffed10) -- paddr (0x4bdd10) 

-- Tick (34474500) -- ISN: (96405) : S -> 0x(1) at (0x7fffffffed08) -- Size = (8) -- vaddr (0x7fffffffed08) -- paddr (0x4bdd08) 

-- Tick (34474500) -- ISN: (96409) : L from (0x7fffffffed18) -- of Size = (8) -- vaddr (0x7fffffffed18) -- paddr (0x4bdd18) 

-- Tick (34474500) -- ISN: (96410) : L from (0xabd8a8) -- of Size = (8) -- vaddr (0xabd8a8) -- paddr (0x4bf8a8) 

-- Tick (34475000) -- ISN: (96395) : S -> 0x(1) at (0x7fffffffed10) -- Size = (4) -- vaddr (0x7fffffffed10) -- paddr (0x4bdd10) 

-- Sqsh -> ISN (96407)

-- Sqsh -> ISN (96395)

-- Tick (34481500) -- ISN: (96468) : L from (0x7fffffffed10) -- of Size = (4) -- vaddr (0x7fffffffed10) -- paddr (0x4bdd10) 

-- Tick (34483000) -- ISN: (96477) : S -> 0x(1) at (0x7fffffffed08) -- Size = (8) -- vaddr (0x7fffffffed08) -- paddr (0x4bdd08) 

-- Tick (34483000) -- ISN: (96481) : L from (0x7fffffffed08) -- of Size = (8) -- vaddr (0x7fffffffed08) -- paddr (0x4bdd08) 

-- Tick (34483000) -- ISN: (96485) : L from (0x7fffffffed18) -- of Size = (8) -- vaddr (0x7fffffffed18) -- paddr (0x4bdd18) 

-- Tick (34483000) -- ISN: (96486) : L from (0xabd8a8) -- of Size = (8) -- vaddr (0xabd8a8) -- paddr (0x4bf8a8) 

-- Tick (34484000) -- ISN: (96493) : S -> 0x(1a) at (0x7fffffffed08) -- Size = (8) -- vaddr (0x7fffffffed08) -- paddr (0x4bdd08) 

-- Sqsh -> ISN (96473)

-- Tick (34490000) -- ISN: (96528) : L from (0x7fffffffed10) -- of Size = (4) -- vaddr (0x7fffffffed10) -- paddr (0x4bdd10) 

-- Tick (34491500) -- ISN: (96541) : S -> 0x(1) at (0x7fffffffed08) -- Size = (8) -- vaddr (0x7fffffffed08) -- paddr (0x4bdd08) 

-- Tick (34491500) -- ISN: (96545) : L from (0x7fffffffed18) -- of Size = (8) -- vaddr (0x7fffffffed18) -- paddr (0x4bdd18) 

-- Tick (34491500) -- ISN: (96546) : L from (0xabd8a8) -- of Size = (8) -- vaddr (0xabd8a8) -- paddr (0x4bf8a8) 

-- Tick (34492000) -- ISN: (96531) : S -> 0x(2) at (0x7fffffffed10) -- Size = (4) -- vaddr (0x7fffffffed10) -- paddr (0x4bdd10) 

-- Sqsh -> ISN (96543)

-- Tick (34492500) -- ISN: (96532) : L from (0x7fffffffed10) -- of Size = (4) -- vaddr (0x7fffffffed10) -- paddr (0x4bdd10) 

-- Sqsh -> ISN (96537)

-- Tick (34500000) -- ISN: (96608) : L from (0x7fffffffed10) -- of Size = (4) -- vaddr (0x7fffffffed10) -- paddr (0x4bdd10) 

-- Tick (34501500) -- ISN: (96621) : S -> 0x(1) at (0x7fffffffed08) -- Size = (8) -- vaddr (0x7fffffffed08) -- paddr (0x4bdd08) 

-- Tick (34501500) -- ISN: (96626) : L from (0xabd8a8) -- of Size = (8) -- vaddr (0xabd8a8) -- paddr (0x4bf8a8) 

-- Tick (34502000) -- ISN: (96611) : S -> 0x(3) at (0x7fffffffed10) -- Size = (4) -- vaddr (0x7fffffffed10) -- paddr (0x4bdd10) 

-- Sqsh -> ISN (96623)

-- Tick (34502500) -- ISN: (96612) : L from (0x7fffffffed10) -- of Size = (4) -- vaddr (0x7fffffffed10) -- paddr (0x4bdd10) 

-- Sqsh -> ISN (96617)

-- Tick (34510000) -- ISN: (96680) : L from (0x7fffffffed10) -- of Size = (4) -- vaddr (0x7fffffffed10) -- paddr (0x4bdd10) 

-- Tick (34511500) -- ISN: (96693) : S -> 0x(1) at (0x7fffffffed08) -- Size = (8) -- vaddr (0x7fffffffed08) -- paddr (0x4bdd08) 

-- Tick (34511500) -- ISN: (96697) : L from (0x7fffffffed08) -- of Size = (8) -- vaddr (0x7fffffffed08) -- paddr (0x4bdd08) 

-- Tick (34512000) -- ISN: (96683) : S -> 0x(4) at (0x7fffffffed10) -- Size = (4) -- vaddr (0x7fffffffed10) -- paddr (0x4bdd10) 

-- Tick (34512500) -- ISN: (96684) : L from (0x7fffffffed10) -- of Size = (4) -- vaddr (0x7fffffffed10) -- paddr (0x4bdd10) 

-- Tick (34512500) -- ISN: (96701) : L from (0x7fffffffed18) -- of Size = (8) -- vaddr (0x7fffffffed18) -- paddr (0x4bdd18) 

-- Tick (34512500) -- ISN: (96702) : L from (0xabd8a8) -- of Size = (8) -- vaddr (0xabd8a8) -- paddr (0x4bf8a8) 

-- Tick (34513500) -- ISN: (96709) : S -> 0x(1a) at (0x7fffffffed08) -- Size = (8) -- vaddr (0x7fffffffed08) -- paddr (0x4bdd08) 

-- Tick (34513500) -- ISN: (96713) : L from (0x7fffffffed20) -- of Size = (8) -- vaddr (0x7fffffffed20) -- paddr (0x4bdd20) 

-- Sqsh -> ISN (96711)

-- Sqsh -> ISN (96689)

-- Tick (34520500) -- ISN: (96744) : L from (0x7fffffffed10) -- of Size = (4) -- vaddr (0x7fffffffed10) -- paddr (0x4bdd10) 

-- Tick (34521500) -- ISN: (96754) : L from (0x7fffffffed10) -- of Size = (4) -- vaddr (0x7fffffffed10) -- paddr (0x4bdd10) 

-- Tick (34522000) -- ISN: (96764) : L from (0x7fffffffed10) -- of Size = (4) -- vaddr (0x7fffffffed10) -- paddr (0x4bdd10) 

-- Tick (34522500) -- ISN: (96747) : S -> 0x(5) at (0x7fffffffed10) -- Size = (4) -- vaddr (0x7fffffffed10) -- paddr (0x4bdd10) 

-- Tick (34522500) -- ISN: (96774) : L from (0x7fffffffed10) -- of Size = (4) -- vaddr (0x7fffffffed10) -- paddr (0x4bdd10) 

-- Tick (34523000) -- ISN: (96748) : L from (0x7fffffffed10) -- of Size = (4) -- vaddr (0x7fffffffed10) -- paddr (0x4bdd10) 

-- Sqsh -> ISN (96753)

-- Tick (34528000) -- ISN: (96814) : L from (0x7fffffffed10) -- of Size = (4) -- vaddr (0x7fffffffed10) -- paddr (0x4bdd10) 

-- Tick (34530000) -- ISN: (96817) : S -> 0x(6) at (0x7fffffffed10) -- Size = (4) -- vaddr (0x7fffffffed10) -- paddr (0x4bdd10) 

-- Tick (34530500) -- ISN: (96818) : L from (0x7fffffffed10) -- of Size = (4) -- vaddr (0x7fffffffed10) -- paddr (0x4bdd10) 

-- Tick (34530500) -- ISN: (96824) : L from (0x7fffffffed10) -- of Size = (4) -- vaddr (0x7fffffffed10) -- paddr (0x4bdd10) 

-- Tick (34532000) -- ISN: (96827) : S -> 0x(7) at (0x7fffffffed10) -- Size = (4) -- vaddr (0x7fffffffed10) -- paddr (0x4bdd10) 

-- Tick (34532500) -- ISN: (96828) : L from (0x7fffffffed10) -- of Size = (4) -- vaddr (0x7fffffffed10) -- paddr (0x4bdd10) 

-- Tick (34532500) -- ISN: (96834) : L from (0x7fffffffed10) -- of Size = (4) -- vaddr (0x7fffffffed10) -- paddr (0x4bdd10) 

-- Tick (34534000) -- ISN: (96837) : S -> 0x(8) at (0x7fffffffed10) -- Size = (4) -- vaddr (0x7fffffffed10) -- paddr (0x4bdd10) 

-- Tick (34534500) -- ISN: (96838) : L from (0x7fffffffed10) -- of Size = (4) -- vaddr (0x7fffffffed10) -- paddr (0x4bdd10) 

-- Tick (34534500) -- ISN: (96844) : L from (0x7fffffffed10) -- of Size = (4) -- vaddr (0x7fffffffed10) -- paddr (0x4bdd10) 

-- Tick (34536000) -- ISN: (96847) : S -> 0x(9) at (0x7fffffffed10) -- Size = (4) -- vaddr (0x7fffffffed10) -- paddr (0x4bdd10) 

-- Tick (34536500) -- ISN: (96848) : L from (0x7fffffffed10) -- of Size = (4) -- vaddr (0x7fffffffed10) -- paddr (0x4bdd10) 

-- Tick (34536500) -- ISN: (96854) : L from (0x7fffffffed10) -- of Size = (4) -- vaddr (0x7fffffffed10) -- paddr (0x4bdd10) 

-- Tick (34538000) -- ISN: (96857) : S -> 0x(a) at (0x7fffffffed10) -- Size = (4) -- vaddr (0x7fffffffed10) -- paddr (0x4bdd10) 

-- Tick (34538500) -- ISN: (96858) : L from (0x7fffffffed10) -- of Size = (4) -- vaddr (0x7fffffffed10) -- paddr (0x4bdd10) 

-- Tick (34538500) -- ISN: (96864) : L from (0x7fffffffed10) -- of Size = (4) -- vaddr (0x7fffffffed10) -- paddr (0x4bdd10) 

-- Tick (34540000) -- ISN: (96867) : S -> 0x(b) at (0x7fffffffed10) -- Size = (4) -- vaddr (0x7fffffffed10) -- paddr (0x4bdd10) 

-- Tick (34540500) -- ISN: (96868) : L from (0x7fffffffed10) -- of Size = (4) -- vaddr (0x7fffffffed10) -- paddr (0x4bdd10) 

-- Tick (34540500) -- ISN: (96874) : L from (0x7fffffffed10) -- of Size = (4) -- vaddr (0x7fffffffed10) -- paddr (0x4bdd10) 

-- Sqsh -> ISN (96863)

-- Tick (34550500) -- ISN: (96991) : L from (0x7fffffffed18) -- of Size = (8) -- vaddr (0x7fffffffed18) -- paddr (0x4bdd18) 

-- Tick (34550500) -- ISN: (96992) : L from (0xabd8a8) -- of Size = (8) -- vaddr (0xabd8a8) -- paddr (0x4bf8a8) 

-- Tick (34551000) -- ISN: (96987) : S -> 0x(1) at (0x7fffffffed08) -- Size = (8) -- vaddr (0x7fffffffed08) -- paddr (0x4bdd08) 

-- Sqsh -> ISN (96989)

-- Tick (34556500) -- ISN: (97051) : L from (0x7fffffffed08) -- of Size = (8) -- vaddr (0x7fffffffed08) -- paddr (0x4bdd08) 

HERE 2 : enable_memreq_tracing = 0
Exiting @ tick 37229000 because exiting with last active thread context
