gem5 Simulator System.  http://gem5.org
gem5 is copyrighted software; use the --copyright option for details.

gem5 compiled Feb 28 2020 17:14:42
gem5 started Feb 28 2020 22:04:57
gem5 executing on tarun-s, pid 18536
command line: build/X86/gem5.opt configs/example/se.py --cmd=/home/tarun/Desktop/gem5/tests/my_progs/spectre_test_2 --cpu-type=DerivO3CPU --caches

Global frequency set at 1000000000000 ticks per second

Spectre Execution with y = x; statement after the if condition.

**** REAL SIMULATION ****

Address of i = 0x7fffffffece4 

Address of x = 0x6bc3a0 

Address of y = 0x6bc424 

Address of array1 = 0x6bc440 

Address of array2 = 0x6bc3c0 

Address of array3 = 0x6bc5e0 
HERE 1 : enable_memreq_tracing = 1
-- ISN: (78052) : L from (0x7fffffffecd8) -- of Size = (8) 

-- ISN: (78060) : L from (0x7fffffffece4) -- of Size = (4) 

-- ISN: (78061) : L from (0x7fffffffece4) -- of Size = (4) 

-- ISN: (78056) : S -> 0x(0) at (0x7fffffffece4) -- Size = (4) 

-- ISN: (78067) : L from (0x7fffffffece4) -- of Size = (4) 

-- Sqsh -> ISN (78059)

-- ISN: (78105) : L from (0x7fffffffece4) -- of Size = (4) 

-- ISN: (78112) : S -> 0x(0) at (0x7fffffffece4) -- Size = (4) 

-- ISN: (78116) : L from (0x7fffffffece4) -- of Size = (4) 

-- ISN: (78120) : S -> 0x(61) at (0x7fffffffecd8) -- Size = (8) 

-- ISN: (78123) : L from (0x7fffffffece4) -- of Size = (4) 

-- ISN: (78127) : L from (0x7fffffffece4) -- of Size = (4) 

-- Sqsh -> ISN (78115)

-- Sqsh -> ISN (78110)

-- ISN: (78139) : L from (0x7fffffffece4) -- of Size = (4) 

-- ISN: (78140) : L from (0x7fffffffece4) -- of Size = (4) 

-- ISN: (78146) : L from (0x7fffffffece4) -- of Size = (4) 

-- ISN: (78150) : L from (0x7fffffffece4) -- of Size = (4) 

-- ISN: (78161) : L from (0x7fffffffece4) -- of Size = (4) 

-- ISN: (78157) : S -> 0x(0) at (0x7fffffffece4) -- Size = (4) 

-- ISN: (78168) : L from (0x7fffffffece4) -- of Size = (4) 

-- ISN: (78145) : S -> 0x(0) at (0x6bc440) -- Size = (4) 

-- ISN: (78149) : S -> 0x(1) at (0x7fffffffece4) -- Size = (4) 

-- ISN: (78165) : S -> 0x(61) at (0x7fffffffecd8) -- Size = (8) 

-- ISN: (78172) : L from (0x7fffffffece4) -- of Size = (4) 

-- Sqsh -> ISN (78160)

-- Sqsh -> ISN (78149)

-- ISN: (78184) : L from (0x7fffffffece4) -- of Size = (4) 

-- ISN: (78191) : S -> 0x(0) at (0x7fffffffece4) -- Size = (4) 

-- ISN: (78195) : L from (0x7fffffffece4) -- of Size = (4) 

-- ISN: (78204) : S -> 0x(7c) at (0x7fffffffecd8) -- Size = (8) 

-- Sqsh -> ISN (78189)

-- ISN: (78207) : L from (0x7fffffffece4) -- of Size = (4) 

-- ISN: (78208) : L from (0x7fffffffece4) -- of Size = (4) 

-- ISN: (78214) : L from (0x7fffffffece4) -- of Size = (4) 

-- ISN: (78213) : S -> 0x(1) at (0x6bc444) -- Size = (4) 

-- ISN: (78217) : S -> 0x(2) at (0x7fffffffece4) -- Size = (4) 

-- ISN: (78225) : S -> 0x(0) at (0x7fffffffece4) -- Size = (4) 

-- ISN: (78236) : L from (0x7fffffffece4) -- of Size = (4) 

-- ISN: (78218) : L from (0x7fffffffece4) -- of Size = (4) 

-- ISN: (78229) : L from (0x7fffffffece4) -- of Size = (4) 

-- ISN: (78233) : S -> 0x(61) at (0x7fffffffecd8) -- Size = (8) 

-- ISN: (78240) : L from (0x7fffffffece4) -- of Size = (4) 

-- Sqsh -> ISN (78228)

-- Sqsh -> ISN (78223)

-- ISN: (78260) : L from (0x7fffffffece4) -- of Size = (4) 

-- ISN: (78261) : L from (0x7fffffffece4) -- of Size = (4) 

-- ISN: (78267) : L from (0x7fffffffece4) -- of Size = (4) 

-- ISN: (78266) : S -> 0x(2) at (0x6bc448) -- Size = (4) 

-- ISN: (78270) : S -> 0x(3) at (0x7fffffffece4) -- Size = (4) 

-- ISN: (78278) : S -> 0x(0) at (0x7fffffffece4) -- Size = (4) 

-- ISN: (78289) : L from (0x7fffffffece4) -- of Size = (4) 

-- ISN: (78271) : L from (0x7fffffffece4) -- of Size = (4) 

-- ISN: (78282) : L from (0x7fffffffece4) -- of Size = (4) 

-- ISN: (78286) : S -> 0x(61) at (0x7fffffffecd8) -- Size = (8) 

-- ISN: (78293) : L from (0x7fffffffece4) -- of Size = (4) 

-- Sqsh -> ISN (78281)

-- Sqsh -> ISN (78276)

-- ISN: (78313) : L from (0x7fffffffece4) -- of Size = (4) 

-- ISN: (78314) : L from (0x7fffffffece4) -- of Size = (4) 

-- ISN: (78320) : L from (0x7fffffffece4) -- of Size = (4) 

-- ISN: (78335) : L from (0x7fffffffece4) -- of Size = (4) 

-- ISN: (78319) : S -> 0x(3) at (0x6bc44c) -- Size = (4) 

-- ISN: (78323) : S -> 0x(4) at (0x7fffffffece4) -- Size = (4) 

-- ISN: (78331) : S -> 0x(0) at (0x7fffffffece4) -- Size = (4) 

-- ISN: (78324) : L from (0x7fffffffece4) -- of Size = (4) 

-- Sqsh -> ISN (78334)

-- Sqsh -> ISN (78329)

-- ISN: (78355) : L from (0x7fffffffece4) -- of Size = (4) 

-- ISN: (78356) : L from (0x7fffffffece4) -- of Size = (4) 

-- ISN: (78362) : L from (0x7fffffffece4) -- of Size = (4) 

-- ISN: (78361) : S -> 0x(4) at (0x6bc450) -- Size = (4) 

-- ISN: (78365) : S -> 0x(5) at (0x7fffffffece4) -- Size = (4) 

-- ISN: (78372) : L from (0x7fffffffece4) -- of Size = (4) 

-- ISN: (78373) : L from (0x7fffffffece4) -- of Size = (4) 

-- ISN: (78366) : L from (0x7fffffffece4) -- of Size = (4) 

-- ISN: (78379) : L from (0x7fffffffece4) -- of Size = (4) 

-- ISN: (78378) : S -> 0x(5) at (0x6bc454) -- Size = (4) 

-- ISN: (78382) : S -> 0x(6) at (0x7fffffffece4) -- Size = (4) 

-- ISN: (78383) : L from (0x7fffffffece4) -- of Size = (4) 

-- ISN: (78389) : L from (0x7fffffffece4) -- of Size = (4) 

-- ISN: (78390) : L from (0x7fffffffece4) -- of Size = (4) 

-- ISN: (78396) : L from (0x7fffffffece4) -- of Size = (4) 

-- ISN: (78395) : S -> 0x(6) at (0x6bc458) -- Size = (4) 

-- ISN: (78399) : S -> 0x(7) at (0x7fffffffece4) -- Size = (4) 

-- ISN: (78400) : L from (0x7fffffffece4) -- of Size = (4) 

-- ISN: (78406) : L from (0x7fffffffece4) -- of Size = (4) 

-- ISN: (78407) : L from (0x7fffffffece4) -- of Size = (4) 

-- ISN: (78413) : L from (0x7fffffffece4) -- of Size = (4) 

-- ISN: (78412) : S -> 0x(7) at (0x6bc45c) -- Size = (4) 

-- ISN: (78416) : S -> 0x(8) at (0x7fffffffece4) -- Size = (4) 

-- ISN: (78417) : L from (0x7fffffffece4) -- of Size = (4) 

-- ISN: (78423) : L from (0x7fffffffece4) -- of Size = (4) 

-- ISN: (78424) : L from (0x7fffffffece4) -- of Size = (4) 

-- ISN: (78430) : L from (0x7fffffffece4) -- of Size = (4) 

-- ISN: (78429) : S -> 0x(8) at (0x6bc460) -- Size = (4) 

-- ISN: (78433) : S -> 0x(9) at (0x7fffffffece4) -- Size = (4) 

-- ISN: (78434) : L from (0x7fffffffece4) -- of Size = (4) 

-- ISN: (78440) : L from (0x7fffffffece4) -- of Size = (4) 

-- ISN: (78441) : L from (0x7fffffffece4) -- of Size = (4) 

-- ISN: (78447) : L from (0x7fffffffece4) -- of Size = (4) 

-- ISN: (78446) : S -> 0x(9) at (0x6bc464) -- Size = (4) 

-- ISN: (78450) : S -> 0x(a) at (0x7fffffffece4) -- Size = (4) 

-- ISN: (78451) : L from (0x7fffffffece4) -- of Size = (4) 

-- ISN: (78457) : L from (0x7fffffffece4) -- of Size = (4) 

-- ISN: (78458) : L from (0x7fffffffece4) -- of Size = (4) 

-- ISN: (78464) : L from (0x7fffffffece4) -- of Size = (4) 

-- ISN: (78463) : S -> 0x(a) at (0x6bc468) -- Size = (4) 

-- ISN: (78467) : S -> 0x(b) at (0x7fffffffece4) -- Size = (4) 

-- ISN: (78468) : L from (0x7fffffffece4) -- of Size = (4) 

-- ISN: (78474) : L from (0x7fffffffece4) -- of Size = (4) 

-- ISN: (78475) : L from (0x7fffffffece4) -- of Size = (4) 

-- ISN: (78481) : L from (0x7fffffffece4) -- of Size = (4) 

-- ISN: (78480) : S -> 0x(b) at (0x6bc46c) -- Size = (4) 

-- ISN: (78484) : S -> 0x(c) at (0x7fffffffece4) -- Size = (4) 

-- ISN: (78485) : L from (0x7fffffffece4) -- of Size = (4) 

-- ISN: (78491) : L from (0x7fffffffece4) -- of Size = (4) 

-- ISN: (78492) : L from (0x7fffffffece4) -- of Size = (4) 

-- ISN: (78498) : L from (0x7fffffffece4) -- of Size = (4) 

-- ISN: (78497) : S -> 0x(c) at (0x6bc470) -- Size = (4) 

-- ISN: (78501) : S -> 0x(d) at (0x7fffffffece4) -- Size = (4) 

-- ISN: (78502) : L from (0x7fffffffece4) -- of Size = (4) 

-- ISN: (78508) : L from (0x7fffffffece4) -- of Size = (4) 

-- ISN: (78509) : L from (0x7fffffffece4) -- of Size = (4) 

-- ISN: (78515) : L from (0x7fffffffece4) -- of Size = (4) 

-- ISN: (78514) : S -> 0x(d) at (0x6bc474) -- Size = (4) 

-- ISN: (78518) : S -> 0x(e) at (0x7fffffffece4) -- Size = (4) 

-- ISN: (78519) : L from (0x7fffffffece4) -- of Size = (4) 

-- ISN: (78525) : L from (0x7fffffffece4) -- of Size = (4) 

-- ISN: (78526) : L from (0x7fffffffece4) -- of Size = (4) 

-- ISN: (78532) : L from (0x7fffffffece4) -- of Size = (4) 

-- ISN: (78531) : S -> 0x(e) at (0x6bc478) -- Size = (4) 

-- ISN: (78535) : S -> 0x(f) at (0x7fffffffece4) -- Size = (4) 

-- ISN: (78536) : L from (0x7fffffffece4) -- of Size = (4) 

-- ISN: (78542) : L from (0x7fffffffece4) -- of Size = (4) 

-- ISN: (78543) : L from (0x7fffffffece4) -- of Size = (4) 

-- ISN: (78549) : L from (0x7fffffffece4) -- of Size = (4) 

-- ISN: (78548) : S -> 0x(f) at (0x6bc47c) -- Size = (4) 

-- ISN: (78552) : S -> 0x(10) at (0x7fffffffece4) -- Size = (4) 

-- ISN: (78553) : L from (0x7fffffffece4) -- of Size = (4) 

-- ISN: (78559) : L from (0x7fffffffece4) -- of Size = (4) 

-- ISN: (78560) : L from (0x7fffffffece4) -- of Size = (4) 

-- ISN: (78566) : L from (0x7fffffffece4) -- of Size = (4) 

-- ISN: (78565) : S -> 0x(10) at (0x6bc480) -- Size = (4) 

-- ISN: (78569) : S -> 0x(11) at (0x7fffffffece4) -- Size = (4) 

-- ISN: (78570) : L from (0x7fffffffece4) -- of Size = (4) 

-- ISN: (78576) : L from (0x7fffffffece4) -- of Size = (4) 

-- ISN: (78577) : L from (0x7fffffffece4) -- of Size = (4) 

-- ISN: (78583) : L from (0x7fffffffece4) -- of Size = (4) 

-- ISN: (78582) : S -> 0x(11) at (0x6bc484) -- Size = (4) 

-- ISN: (78586) : S -> 0x(12) at (0x7fffffffece4) -- Size = (4) 

-- ISN: (78587) : L from (0x7fffffffece4) -- of Size = (4) 

-- ISN: (78593) : L from (0x7fffffffece4) -- of Size = (4) 

-- ISN: (78594) : L from (0x7fffffffece4) -- of Size = (4) 

-- ISN: (78600) : L from (0x7fffffffece4) -- of Size = (4) 

-- ISN: (78599) : S -> 0x(12) at (0x6bc488) -- Size = (4) 

-- ISN: (78603) : S -> 0x(13) at (0x7fffffffece4) -- Size = (4) 

-- ISN: (78604) : L from (0x7fffffffece4) -- of Size = (4) 

-- ISN: (78610) : L from (0x7fffffffece4) -- of Size = (4) 

-- ISN: (78611) : L from (0x7fffffffece4) -- of Size = (4) 

-- ISN: (78617) : L from (0x7fffffffece4) -- of Size = (4) 

-- ISN: (78616) : S -> 0x(13) at (0x6bc48c) -- Size = (4) 

-- ISN: (78620) : S -> 0x(14) at (0x7fffffffece4) -- Size = (4) 

-- ISN: (78621) : L from (0x7fffffffece4) -- of Size = (4) 

-- ISN: (78627) : L from (0x7fffffffece4) -- of Size = (4) 

-- ISN: (78628) : L from (0x7fffffffece4) -- of Size = (4) 

-- ISN: (78634) : L from (0x7fffffffece4) -- of Size = (4) 

-- ISN: (78633) : S -> 0x(14) at (0x6bc490) -- Size = (4) 

-- ISN: (78637) : S -> 0x(15) at (0x7fffffffece4) -- Size = (4) 

-- ISN: (78638) : L from (0x7fffffffece4) -- of Size = (4) 

-- ISN: (78644) : L from (0x7fffffffece4) -- of Size = (4) 

-- ISN: (78645) : L from (0x7fffffffece4) -- of Size = (4) 

-- ISN: (78651) : L from (0x7fffffffece4) -- of Size = (4) 

-- ISN: (78650) : S -> 0x(15) at (0x6bc494) -- Size = (4) 

-- ISN: (78654) : S -> 0x(16) at (0x7fffffffece4) -- Size = (4) 

-- ISN: (78655) : L from (0x7fffffffece4) -- of Size = (4) 

-- ISN: (78661) : L from (0x7fffffffece4) -- of Size = (4) 

-- ISN: (78662) : L from (0x7fffffffece4) -- of Size = (4) 

-- ISN: (78668) : L from (0x7fffffffece4) -- of Size = (4) 

-- ISN: (78667) : S -> 0x(16) at (0x6bc498) -- Size = (4) 

-- ISN: (78671) : S -> 0x(17) at (0x7fffffffece4) -- Size = (4) 

-- ISN: (78672) : L from (0x7fffffffece4) -- of Size = (4) 

-- ISN: (78678) : L from (0x7fffffffece4) -- of Size = (4) 

-- ISN: (78679) : L from (0x7fffffffece4) -- of Size = (4) 

-- ISN: (78685) : L from (0x7fffffffece4) -- of Size = (4) 

-- ISN: (78684) : S -> 0x(17) at (0x6bc49c) -- Size = (4) 

-- ISN: (78688) : S -> 0x(18) at (0x7fffffffece4) -- Size = (4) 

-- ISN: (78689) : L from (0x7fffffffece4) -- of Size = (4) 

-- ISN: (78695) : L from (0x7fffffffece4) -- of Size = (4) 

-- ISN: (78696) : L from (0x7fffffffece4) -- of Size = (4) 

-- ISN: (78702) : L from (0x7fffffffece4) -- of Size = (4) 

-- ISN: (78701) : S -> 0x(18) at (0x6bc4a0) -- Size = (4) 

-- ISN: (78705) : S -> 0x(19) at (0x7fffffffece4) -- Size = (4) 

-- ISN: (78706) : L from (0x7fffffffece4) -- of Size = (4) 

-- ISN: (78712) : L from (0x7fffffffece4) -- of Size = (4) 

-- ISN: (78713) : L from (0x7fffffffece4) -- of Size = (4) 

-- ISN: (78719) : L from (0x7fffffffece4) -- of Size = (4) 

-- ISN: (78718) : S -> 0x(19) at (0x6bc4a4) -- Size = (4) 

-- ISN: (78722) : S -> 0x(1a) at (0x7fffffffece4) -- Size = (4) 

-- ISN: (78723) : L from (0x7fffffffece4) -- of Size = (4) 

-- ISN: (78729) : L from (0x7fffffffece4) -- of Size = (4) 

-- ISN: (78730) : L from (0x7fffffffece4) -- of Size = (4) 

-- ISN: (78736) : L from (0x7fffffffece4) -- of Size = (4) 

-- ISN: (78735) : S -> 0x(1a) at (0x6bc4a8) -- Size = (4) 

-- ISN: (78739) : S -> 0x(1b) at (0x7fffffffece4) -- Size = (4) 

-- ISN: (78740) : L from (0x7fffffffece4) -- of Size = (4) 

-- ISN: (78746) : L from (0x7fffffffece4) -- of Size = (4) 

-- ISN: (78747) : L from (0x7fffffffece4) -- of Size = (4) 

-- ISN: (78753) : L from (0x7fffffffece4) -- of Size = (4) 

-- ISN: (78752) : S -> 0x(1b) at (0x6bc4ac) -- Size = (4) 

-- ISN: (78756) : S -> 0x(1c) at (0x7fffffffece4) -- Size = (4) 

-- ISN: (78757) : L from (0x7fffffffece4) -- of Size = (4) 

-- ISN: (78763) : L from (0x7fffffffece4) -- of Size = (4) 

-- ISN: (78764) : L from (0x7fffffffece4) -- of Size = (4) 

-- ISN: (78770) : L from (0x7fffffffece4) -- of Size = (4) 

-- ISN: (78769) : S -> 0x(1c) at (0x6bc4b0) -- Size = (4) 

-- ISN: (78773) : S -> 0x(1d) at (0x7fffffffece4) -- Size = (4) 

-- ISN: (78774) : L from (0x7fffffffece4) -- of Size = (4) 

-- ISN: (78780) : L from (0x7fffffffece4) -- of Size = (4) 

-- ISN: (78781) : L from (0x7fffffffece4) -- of Size = (4) 

-- ISN: (78787) : L from (0x7fffffffece4) -- of Size = (4) 

-- ISN: (78786) : S -> 0x(1d) at (0x6bc4b4) -- Size = (4) 

-- ISN: (78790) : S -> 0x(1e) at (0x7fffffffece4) -- Size = (4) 

-- ISN: (78791) : L from (0x7fffffffece4) -- of Size = (4) 

-- ISN: (78797) : L from (0x7fffffffece4) -- of Size = (4) 

-- ISN: (78798) : L from (0x7fffffffece4) -- of Size = (4) 

-- ISN: (78804) : L from (0x7fffffffece4) -- of Size = (4) 

-- ISN: (78803) : S -> 0x(1e) at (0x6bc4b8) -- Size = (4) 

-- ISN: (78807) : S -> 0x(1f) at (0x7fffffffece4) -- Size = (4) 

-- ISN: (78808) : L from (0x7fffffffece4) -- of Size = (4) 

-- ISN: (78814) : L from (0x7fffffffece4) -- of Size = (4) 

-- ISN: (78815) : L from (0x7fffffffece4) -- of Size = (4) 

-- ISN: (78821) : L from (0x7fffffffece4) -- of Size = (4) 

-- ISN: (78820) : S -> 0x(1f) at (0x6bc4bc) -- Size = (4) 

-- ISN: (78824) : S -> 0x(20) at (0x7fffffffece4) -- Size = (4) 

-- ISN: (78825) : L from (0x7fffffffece4) -- of Size = (4) 

-- ISN: (78831) : L from (0x7fffffffece4) -- of Size = (4) 

-- ISN: (78832) : L from (0x7fffffffece4) -- of Size = (4) 

-- ISN: (78838) : L from (0x7fffffffece4) -- of Size = (4) 

-- ISN: (78837) : S -> 0x(20) at (0x6bc4c0) -- Size = (4) 

-- ISN: (78841) : S -> 0x(21) at (0x7fffffffece4) -- Size = (4) 

-- ISN: (78842) : L from (0x7fffffffece4) -- of Size = (4) 

-- ISN: (78848) : L from (0x7fffffffece4) -- of Size = (4) 

-- ISN: (78849) : L from (0x7fffffffece4) -- of Size = (4) 

-- ISN: (78855) : L from (0x7fffffffece4) -- of Size = (4) 

-- ISN: (78865) : L from (0x7fffffffece4) -- of Size = (4) 

-- ISN: (78866) : L from (0x7fffffffece4) -- of Size = (4) 

-- ISN: (78854) : S -> 0x(21) at (0x6bc4c4) -- Size = (4) 

-- ISN: (78858) : S -> 0x(22) at (0x7fffffffece4) -- Size = (4) 

-- ISN: (78859) : L from (0x7fffffffece4) -- of Size = (4) 

-- ISN: (78872) : L from (0x7fffffffece4) -- of Size = (4) 

-- Sqsh -> ISN (78864)

-- ISN: (78915) : L from (0x7fffffffece4) -- of Size = (4) 

-- ISN: (78916) : L from (0x7fffffffece4) -- of Size = (4) 

-- ISN: (78922) : L from (0x7fffffffece4) -- of Size = (4) 

-- ISN: (78926) : L from (0x7fffffffece4) -- of Size = (4) 

-- ISN: (78921) : S -> 0x(22) at (0x6bc4c8) -- Size = (4) 

-- ISN: (78925) : S -> 0x(23) at (0x7fffffffece4) -- Size = (4) 

-- ISN: (78932) : L from (0x7fffffffece4) -- of Size = (4) 

-- ISN: (78933) : L from (0x7fffffffece4) -- of Size = (4) 

-- ISN: (78939) : L from (0x7fffffffece4) -- of Size = (4) 

-- Sqsh -> ISN (78925)

-- ISN: (78957) : L from (0x7fffffffece4) -- of Size = (4) 

-- ISN: (78963) : L from (0x7fffffffece4) -- of Size = (4) 

-- ISN: (78964) : L from (0x7fffffffece4) -- of Size = (4) 

-- ISN: (78970) : L from (0x7fffffffece4) -- of Size = (4) 

-- ISN: (78969) : S -> 0x(23) at (0x6bc4cc) -- Size = (4) 

-- ISN: (78973) : S -> 0x(24) at (0x7fffffffece4) -- Size = (4) 

-- ISN: (78974) : L from (0x7fffffffece4) -- of Size = (4) 

-- ISN: (78980) : L from (0x7fffffffece4) -- of Size = (4) 

-- ISN: (78981) : L from (0x7fffffffece4) -- of Size = (4) 

-- ISN: (78987) : L from (0x7fffffffece4) -- of Size = (4) 

-- ISN: (78986) : S -> 0x(24) at (0x6bc4d0) -- Size = (4) 

-- ISN: (78990) : S -> 0x(25) at (0x7fffffffece4) -- Size = (4) 

-- ISN: (78991) : L from (0x7fffffffece4) -- of Size = (4) 

-- ISN: (78997) : L from (0x7fffffffece4) -- of Size = (4) 

-- ISN: (78998) : L from (0x7fffffffece4) -- of Size = (4) 

-- ISN: (79004) : L from (0x7fffffffece4) -- of Size = (4) 

-- ISN: (79003) : S -> 0x(25) at (0x6bc4d4) -- Size = (4) 

-- ISN: (79007) : S -> 0x(26) at (0x7fffffffece4) -- Size = (4) 

-- ISN: (79008) : L from (0x7fffffffece4) -- of Size = (4) 

-- ISN: (79014) : L from (0x7fffffffece4) -- of Size = (4) 

-- ISN: (79015) : L from (0x7fffffffece4) -- of Size = (4) 

-- ISN: (79021) : L from (0x7fffffffece4) -- of Size = (4) 

-- ISN: (79020) : S -> 0x(26) at (0x6bc4d8) -- Size = (4) 

-- ISN: (79024) : S -> 0x(27) at (0x7fffffffece4) -- Size = (4) 

-- ISN: (79025) : L from (0x7fffffffece4) -- of Size = (4) 

-- ISN: (79031) : L from (0x7fffffffece4) -- of Size = (4) 

-- ISN: (79032) : L from (0x7fffffffece4) -- of Size = (4) 

-- ISN: (79038) : L from (0x7fffffffece4) -- of Size = (4) 

-- ISN: (79037) : S -> 0x(27) at (0x6bc4dc) -- Size = (4) 

-- ISN: (79041) : S -> 0x(28) at (0x7fffffffece4) -- Size = (4) 

-- ISN: (79042) : L from (0x7fffffffece4) -- of Size = (4) 

-- ISN: (79048) : L from (0x7fffffffece4) -- of Size = (4) 

-- ISN: (79049) : L from (0x7fffffffece4) -- of Size = (4) 

-- ISN: (79055) : L from (0x7fffffffece4) -- of Size = (4) 

-- ISN: (79054) : S -> 0x(28) at (0x6bc4e0) -- Size = (4) 

-- ISN: (79058) : S -> 0x(29) at (0x7fffffffece4) -- Size = (4) 

-- ISN: (79059) : L from (0x7fffffffece4) -- of Size = (4) 

-- ISN: (79065) : L from (0x7fffffffece4) -- of Size = (4) 

-- ISN: (79066) : L from (0x7fffffffece4) -- of Size = (4) 

-- ISN: (79072) : L from (0x7fffffffece4) -- of Size = (4) 

-- ISN: (79071) : S -> 0x(29) at (0x6bc4e4) -- Size = (4) 

-- ISN: (79075) : S -> 0x(2a) at (0x7fffffffece4) -- Size = (4) 

-- ISN: (79076) : L from (0x7fffffffece4) -- of Size = (4) 

-- ISN: (79082) : L from (0x7fffffffece4) -- of Size = (4) 

-- ISN: (79083) : L from (0x7fffffffece4) -- of Size = (4) 

-- ISN: (79089) : L from (0x7fffffffece4) -- of Size = (4) 

-- ISN: (79088) : S -> 0x(2a) at (0x6bc4e8) -- Size = (4) 

-- ISN: (79092) : S -> 0x(2b) at (0x7fffffffece4) -- Size = (4) 

-- ISN: (79093) : L from (0x7fffffffece4) -- of Size = (4) 

-- ISN: (79099) : L from (0x7fffffffece4) -- of Size = (4) 

-- ISN: (79100) : L from (0x7fffffffece4) -- of Size = (4) 

-- ISN: (79106) : L from (0x7fffffffece4) -- of Size = (4) 

-- ISN: (79105) : S -> 0x(2b) at (0x6bc4ec) -- Size = (4) 

-- ISN: (79109) : S -> 0x(2c) at (0x7fffffffece4) -- Size = (4) 

-- ISN: (79110) : L from (0x7fffffffece4) -- of Size = (4) 

-- ISN: (79116) : L from (0x7fffffffece4) -- of Size = (4) 

-- ISN: (79117) : L from (0x7fffffffece4) -- of Size = (4) 

-- ISN: (79123) : L from (0x7fffffffece4) -- of Size = (4) 

-- ISN: (79122) : S -> 0x(2c) at (0x6bc4f0) -- Size = (4) 

-- ISN: (79126) : S -> 0x(2d) at (0x7fffffffece4) -- Size = (4) 

-- ISN: (79127) : L from (0x7fffffffece4) -- of Size = (4) 

-- ISN: (79133) : L from (0x7fffffffece4) -- of Size = (4) 

-- ISN: (79134) : L from (0x7fffffffece4) -- of Size = (4) 

-- ISN: (79140) : L from (0x7fffffffece4) -- of Size = (4) 

-- ISN: (79139) : S -> 0x(2d) at (0x6bc4f4) -- Size = (4) 

-- ISN: (79143) : S -> 0x(2e) at (0x7fffffffece4) -- Size = (4) 

-- ISN: (79144) : L from (0x7fffffffece4) -- of Size = (4) 

-- ISN: (79150) : L from (0x7fffffffece4) -- of Size = (4) 

-- ISN: (79151) : L from (0x7fffffffece4) -- of Size = (4) 

-- ISN: (79157) : L from (0x7fffffffece4) -- of Size = (4) 

-- ISN: (79156) : S -> 0x(2e) at (0x6bc4f8) -- Size = (4) 

-- ISN: (79160) : S -> 0x(2f) at (0x7fffffffece4) -- Size = (4) 

-- ISN: (79161) : L from (0x7fffffffece4) -- of Size = (4) 

-- ISN: (79167) : L from (0x7fffffffece4) -- of Size = (4) 

-- ISN: (79168) : L from (0x7fffffffece4) -- of Size = (4) 

-- ISN: (79174) : L from (0x7fffffffece4) -- of Size = (4) 

-- ISN: (79173) : S -> 0x(2f) at (0x6bc4fc) -- Size = (4) 

-- ISN: (79177) : S -> 0x(30) at (0x7fffffffece4) -- Size = (4) 

-- ISN: (79178) : L from (0x7fffffffece4) -- of Size = (4) 

-- ISN: (79184) : L from (0x7fffffffece4) -- of Size = (4) 

-- ISN: (79185) : L from (0x7fffffffece4) -- of Size = (4) 

-- ISN: (79191) : L from (0x7fffffffece4) -- of Size = (4) 

-- ISN: (79190) : S -> 0x(30) at (0x6bc500) -- Size = (4) 

-- ISN: (79194) : S -> 0x(31) at (0x7fffffffece4) -- Size = (4) 

-- ISN: (79195) : L from (0x7fffffffece4) -- of Size = (4) 

-- ISN: (79201) : L from (0x7fffffffece4) -- of Size = (4) 

-- ISN: (79202) : L from (0x7fffffffece4) -- of Size = (4) 

-- ISN: (79208) : L from (0x7fffffffece4) -- of Size = (4) 

-- ISN: (79219) : L from (0x7fffffffece4) -- of Size = (4) 

-- ISN: (79207) : S -> 0x(31) at (0x6bc504) -- Size = (4) 

-- ISN: (79211) : S -> 0x(32) at (0x7fffffffece4) -- Size = (4) 

-- ISN: (79212) : L from (0x7fffffffece4) -- of Size = (4) 

-- ISN: (79218) : L from (0x7fffffffece4) -- of Size = (4) 

-- ISN: (79225) : L from (0x7fffffffece4) -- of Size = (4) 

-- Sqsh -> ISN (79218)

-- ISN: (79268) : L from (0x7fffffffece4) -- of Size = (4) 

-- ISN: (79274) : L from (0x7fffffffece4) -- of Size = (4) 

-- ISN: (79273) : S -> 0x(32) at (0x6bc508) -- Size = (4) 

-- ISN: (79277) : S -> 0x(33) at (0x7fffffffece4) -- Size = (4) 

-- ISN: (79278) : L from (0x7fffffffece4) -- of Size = (4) 

-- ISN: (79284) : L from (0x7fffffffece4) -- of Size = (4) 

-- ISN: (79285) : L from (0x7fffffffece4) -- of Size = (4) 

-- ISN: (79291) : L from (0x7fffffffece4) -- of Size = (4) 

-- ISN: (79290) : S -> 0x(33) at (0x6bc50c) -- Size = (4) 

-- ISN: (79294) : S -> 0x(34) at (0x7fffffffece4) -- Size = (4) 

-- ISN: (79295) : L from (0x7fffffffece4) -- of Size = (4) 

-- ISN: (79301) : L from (0x7fffffffece4) -- of Size = (4) 

-- ISN: (79302) : L from (0x7fffffffece4) -- of Size = (4) 

-- ISN: (79308) : L from (0x7fffffffece4) -- of Size = (4) 

-- ISN: (79307) : S -> 0x(34) at (0x6bc510) -- Size = (4) 

-- ISN: (79311) : S -> 0x(35) at (0x7fffffffece4) -- Size = (4) 

-- ISN: (79312) : L from (0x7fffffffece4) -- of Size = (4) 

-- ISN: (79318) : L from (0x7fffffffece4) -- of Size = (4) 

-- ISN: (79319) : L from (0x7fffffffece4) -- of Size = (4) 

-- ISN: (79325) : L from (0x7fffffffece4) -- of Size = (4) 

-- ISN: (79324) : S -> 0x(35) at (0x6bc514) -- Size = (4) 

-- ISN: (79328) : S -> 0x(36) at (0x7fffffffece4) -- Size = (4) 

-- ISN: (79329) : L from (0x7fffffffece4) -- of Size = (4) 

-- ISN: (79335) : L from (0x7fffffffece4) -- of Size = (4) 

-- ISN: (79336) : L from (0x7fffffffece4) -- of Size = (4) 

-- ISN: (79342) : L from (0x7fffffffece4) -- of Size = (4) 

-- ISN: (79341) : S -> 0x(36) at (0x6bc518) -- Size = (4) 

-- ISN: (79345) : S -> 0x(37) at (0x7fffffffece4) -- Size = (4) 

-- ISN: (79346) : L from (0x7fffffffece4) -- of Size = (4) 

-- ISN: (79352) : L from (0x7fffffffece4) -- of Size = (4) 

-- ISN: (79353) : L from (0x7fffffffece4) -- of Size = (4) 

-- ISN: (79359) : L from (0x7fffffffece4) -- of Size = (4) 

-- ISN: (79358) : S -> 0x(37) at (0x6bc51c) -- Size = (4) 

-- ISN: (79362) : S -> 0x(38) at (0x7fffffffece4) -- Size = (4) 

-- ISN: (79363) : L from (0x7fffffffece4) -- of Size = (4) 

-- ISN: (79369) : L from (0x7fffffffece4) -- of Size = (4) 

-- ISN: (79370) : L from (0x7fffffffece4) -- of Size = (4) 

-- ISN: (79376) : L from (0x7fffffffece4) -- of Size = (4) 

-- ISN: (79375) : S -> 0x(38) at (0x6bc520) -- Size = (4) 

-- ISN: (79379) : S -> 0x(39) at (0x7fffffffece4) -- Size = (4) 

-- ISN: (79380) : L from (0x7fffffffece4) -- of Size = (4) 

-- ISN: (79386) : L from (0x7fffffffece4) -- of Size = (4) 

-- ISN: (79387) : L from (0x7fffffffece4) -- of Size = (4) 

-- ISN: (79393) : L from (0x7fffffffece4) -- of Size = (4) 

-- ISN: (79392) : S -> 0x(39) at (0x6bc524) -- Size = (4) 

-- ISN: (79396) : S -> 0x(3a) at (0x7fffffffece4) -- Size = (4) 

-- ISN: (79397) : L from (0x7fffffffece4) -- of Size = (4) 

-- ISN: (79403) : L from (0x7fffffffece4) -- of Size = (4) 

-- ISN: (79404) : L from (0x7fffffffece4) -- of Size = (4) 

-- ISN: (79410) : L from (0x7fffffffece4) -- of Size = (4) 

-- ISN: (79409) : S -> 0x(3a) at (0x6bc528) -- Size = (4) 

-- ISN: (79413) : S -> 0x(3b) at (0x7fffffffece4) -- Size = (4) 

-- ISN: (79414) : L from (0x7fffffffece4) -- of Size = (4) 

-- ISN: (79420) : L from (0x7fffffffece4) -- of Size = (4) 

-- ISN: (79421) : L from (0x7fffffffece4) -- of Size = (4) 

-- ISN: (79427) : L from (0x7fffffffece4) -- of Size = (4) 

-- ISN: (79426) : S -> 0x(3b) at (0x6bc52c) -- Size = (4) 

-- ISN: (79430) : S -> 0x(3c) at (0x7fffffffece4) -- Size = (4) 

-- ISN: (79431) : L from (0x7fffffffece4) -- of Size = (4) 

-- ISN: (79437) : L from (0x7fffffffece4) -- of Size = (4) 

-- ISN: (79438) : L from (0x7fffffffece4) -- of Size = (4) 

-- ISN: (79444) : L from (0x7fffffffece4) -- of Size = (4) 

-- ISN: (79443) : S -> 0x(3c) at (0x6bc530) -- Size = (4) 

-- ISN: (79447) : S -> 0x(3d) at (0x7fffffffece4) -- Size = (4) 

-- ISN: (79448) : L from (0x7fffffffece4) -- of Size = (4) 

-- ISN: (79454) : L from (0x7fffffffece4) -- of Size = (4) 

-- ISN: (79455) : L from (0x7fffffffece4) -- of Size = (4) 

-- ISN: (79461) : L from (0x7fffffffece4) -- of Size = (4) 

-- ISN: (79460) : S -> 0x(3d) at (0x6bc534) -- Size = (4) 

-- ISN: (79464) : S -> 0x(3e) at (0x7fffffffece4) -- Size = (4) 

-- ISN: (79465) : L from (0x7fffffffece4) -- of Size = (4) 

-- ISN: (79471) : L from (0x7fffffffece4) -- of Size = (4) 

-- ISN: (79472) : L from (0x7fffffffece4) -- of Size = (4) 

-- ISN: (79478) : L from (0x7fffffffece4) -- of Size = (4) 

-- ISN: (79477) : S -> 0x(3e) at (0x6bc538) -- Size = (4) 

-- ISN: (79481) : S -> 0x(3f) at (0x7fffffffece4) -- Size = (4) 

-- ISN: (79482) : L from (0x7fffffffece4) -- of Size = (4) 

-- ISN: (79488) : L from (0x7fffffffece4) -- of Size = (4) 

-- ISN: (79489) : L from (0x7fffffffece4) -- of Size = (4) 

-- ISN: (79495) : L from (0x7fffffffece4) -- of Size = (4) 

-- ISN: (79494) : S -> 0x(3f) at (0x6bc53c) -- Size = (4) 

-- ISN: (79498) : S -> 0x(40) at (0x7fffffffece4) -- Size = (4) 

-- ISN: (79499) : L from (0x7fffffffece4) -- of Size = (4) 

-- ISN: (79505) : L from (0x7fffffffece4) -- of Size = (4) 

-- ISN: (79506) : L from (0x7fffffffece4) -- of Size = (4) 

-- ISN: (79512) : L from (0x7fffffffece4) -- of Size = (4) 

-- ISN: (79511) : S -> 0x(40) at (0x6bc540) -- Size = (4) 

-- ISN: (79515) : S -> 0x(41) at (0x7fffffffece4) -- Size = (4) 

-- ISN: (79516) : L from (0x7fffffffece4) -- of Size = (4) 

-- ISN: (79522) : L from (0x7fffffffece4) -- of Size = (4) 

-- ISN: (79523) : L from (0x7fffffffece4) -- of Size = (4) 

-- ISN: (79529) : L from (0x7fffffffece4) -- of Size = (4) 

-- ISN: (79528) : S -> 0x(41) at (0x6bc544) -- Size = (4) 

-- ISN: (79532) : S -> 0x(42) at (0x7fffffffece4) -- Size = (4) 

-- ISN: (79533) : L from (0x7fffffffece4) -- of Size = (4) 

-- ISN: (79539) : L from (0x7fffffffece4) -- of Size = (4) 

-- ISN: (79540) : L from (0x7fffffffece4) -- of Size = (4) 

-- ISN: (79546) : L from (0x7fffffffece4) -- of Size = (4) 

-- ISN: (79549) : S -> 0x(43) at (0x7fffffffece4) -- Size = (4) 

-- ISN: (79545) : S -> 0x(42) at (0x6bc548) -- Size = (4) 

-- ISN: (79550) : L from (0x7fffffffece4) -- of Size = (4) 

-- ISN: (79556) : L from (0x7fffffffece4) -- of Size = (4) 

-- ISN: (79557) : L from (0x7fffffffece4) -- of Size = (4) 

-- ISN: (79563) : L from (0x7fffffffece4) -- of Size = (4) 

-- ISN: (79562) : S -> 0x(43) at (0x6bc54c) -- Size = (4) 

-- ISN: (79566) : S -> 0x(44) at (0x7fffffffece4) -- Size = (4) 

-- ISN: (79580) : L from (0x7fffffffece4) -- of Size = (4) 

-- ISN: (79567) : L from (0x7fffffffece4) -- of Size = (4) 

-- ISN: (79573) : L from (0x7fffffffece4) -- of Size = (4) 

-- ISN: (79574) : L from (0x7fffffffece4) -- of Size = (4) 

-- ISN: (79583) : S -> 0x(45) at (0x7fffffffece4) -- Size = (4) 

-- ISN: (79584) : L from (0x7fffffffece4) -- of Size = (4) 

-- ISN: (79590) : L from (0x7fffffffece4) -- of Size = (4) 

-- ISN: (79591) : L from (0x7fffffffece4) -- of Size = (4) 

-- ISN: (79597) : L from (0x7fffffffece4) -- of Size = (4) 

-- ISN: (79579) : S -> 0x(44) at (0x6bc550) -- Size = (4) 

-- ISN: (79600) : S -> 0x(46) at (0x7fffffffece4) -- Size = (4) 

-- ISN: (79596) : S -> 0x(45) at (0x6bc554) -- Size = (4) 

-- ISN: (79601) : L from (0x7fffffffece4) -- of Size = (4) 

-- ISN: (79607) : L from (0x7fffffffece4) -- of Size = (4) 

-- ISN: (79608) : L from (0x7fffffffece4) -- of Size = (4) 

-- ISN: (79614) : L from (0x7fffffffece4) -- of Size = (4) 

-- ISN: (79613) : S -> 0x(46) at (0x6bc558) -- Size = (4) 

-- ISN: (79617) : S -> 0x(47) at (0x7fffffffece4) -- Size = (4) 

-- ISN: (79631) : L from (0x7fffffffece4) -- of Size = (4) 

-- ISN: (79618) : L from (0x7fffffffece4) -- of Size = (4) 

-- ISN: (79624) : L from (0x7fffffffece4) -- of Size = (4) 

-- ISN: (79625) : L from (0x7fffffffece4) -- of Size = (4) 

-- ISN: (79634) : S -> 0x(48) at (0x7fffffffece4) -- Size = (4) 

-- ISN: (79648) : L from (0x7fffffffece4) -- of Size = (4) 

-- ISN: (79630) : S -> 0x(47) at (0x6bc55c) -- Size = (4) 

-- ISN: (79635) : L from (0x7fffffffece4) -- of Size = (4) 

-- ISN: (79641) : L from (0x7fffffffece4) -- of Size = (4) 

-- ISN: (79642) : L from (0x7fffffffece4) -- of Size = (4) 

-- ISN: (79651) : S -> 0x(49) at (0x7fffffffece4) -- Size = (4) 

-- ISN: (79652) : L from (0x7fffffffece4) -- of Size = (4) 

-- ISN: (79658) : L from (0x7fffffffece4) -- of Size = (4) 

-- ISN: (79659) : L from (0x7fffffffece4) -- of Size = (4) 

-- ISN: (79665) : L from (0x7fffffffece4) -- of Size = (4) 

-- ISN: (79647) : S -> 0x(48) at (0x6bc560) -- Size = (4) 

-- ISN: (79664) : S -> 0x(49) at (0x6bc564) -- Size = (4) 

-- ISN: (79668) : S -> 0x(4a) at (0x7fffffffece4) -- Size = (4) 

-- ISN: (79669) : L from (0x7fffffffece4) -- of Size = (4) 

-- ISN: (79675) : L from (0x7fffffffece4) -- of Size = (4) 

-- ISN: (79676) : L from (0x7fffffffece4) -- of Size = (4) 

-- ISN: (79682) : L from (0x7fffffffece4) -- of Size = (4) 

-- ISN: (79681) : S -> 0x(4a) at (0x6bc568) -- Size = (4) 

-- ISN: (79685) : S -> 0x(4b) at (0x7fffffffece4) -- Size = (4) 

-- ISN: (79686) : L from (0x7fffffffece4) -- of Size = (4) 

-- ISN: (79692) : L from (0x7fffffffece4) -- of Size = (4) 

-- ISN: (79693) : L from (0x7fffffffece4) -- of Size = (4) 

-- ISN: (79699) : L from (0x7fffffffece4) -- of Size = (4) 

-- ISN: (79698) : S -> 0x(4b) at (0x6bc56c) -- Size = (4) 

-- ISN: (79702) : S -> 0x(4c) at (0x7fffffffece4) -- Size = (4) 

-- ISN: (79703) : L from (0x7fffffffece4) -- of Size = (4) 

-- ISN: (79709) : L from (0x7fffffffece4) -- of Size = (4) 

-- ISN: (79710) : L from (0x7fffffffece4) -- of Size = (4) 

-- ISN: (79716) : L from (0x7fffffffece4) -- of Size = (4) 

-- ISN: (79715) : S -> 0x(4c) at (0x6bc570) -- Size = (4) 

-- ISN: (79719) : S -> 0x(4d) at (0x7fffffffece4) -- Size = (4) 

-- ISN: (79720) : L from (0x7fffffffece4) -- of Size = (4) 

-- ISN: (79726) : L from (0x7fffffffece4) -- of Size = (4) 

-- ISN: (79727) : L from (0x7fffffffece4) -- of Size = (4) 

-- ISN: (79733) : L from (0x7fffffffece4) -- of Size = (4) 

-- ISN: (79732) : S -> 0x(4d) at (0x6bc574) -- Size = (4) 

-- ISN: (79736) : S -> 0x(4e) at (0x7fffffffece4) -- Size = (4) 

-- ISN: (79737) : L from (0x7fffffffece4) -- of Size = (4) 

-- ISN: (79743) : L from (0x7fffffffece4) -- of Size = (4) 

-- ISN: (79744) : L from (0x7fffffffece4) -- of Size = (4) 

-- ISN: (79750) : L from (0x7fffffffece4) -- of Size = (4) 

-- ISN: (79749) : S -> 0x(4e) at (0x6bc578) -- Size = (4) 

-- ISN: (79753) : S -> 0x(4f) at (0x7fffffffece4) -- Size = (4) 

-- ISN: (79754) : L from (0x7fffffffece4) -- of Size = (4) 

-- ISN: (79760) : L from (0x7fffffffece4) -- of Size = (4) 

-- ISN: (79761) : L from (0x7fffffffece4) -- of Size = (4) 

-- ISN: (79767) : L from (0x7fffffffece4) -- of Size = (4) 

-- ISN: (79766) : S -> 0x(4f) at (0x6bc57c) -- Size = (4) 

-- ISN: (79770) : S -> 0x(50) at (0x7fffffffece4) -- Size = (4) 

-- ISN: (79771) : L from (0x7fffffffece4) -- of Size = (4) 

-- ISN: (79777) : L from (0x7fffffffece4) -- of Size = (4) 

-- ISN: (79778) : L from (0x7fffffffece4) -- of Size = (4) 

-- ISN: (79784) : L from (0x7fffffffece4) -- of Size = (4) 

-- ISN: (79783) : S -> 0x(50) at (0x6bc580) -- Size = (4) 

-- ISN: (79787) : S -> 0x(51) at (0x7fffffffece4) -- Size = (4) 

-- ISN: (79788) : L from (0x7fffffffece4) -- of Size = (4) 

-- ISN: (79794) : L from (0x7fffffffece4) -- of Size = (4) 

-- ISN: (79795) : L from (0x7fffffffece4) -- of Size = (4) 

-- ISN: (79801) : L from (0x7fffffffece4) -- of Size = (4) 

-- ISN: (79800) : S -> 0x(51) at (0x6bc584) -- Size = (4) 

-- ISN: (79804) : S -> 0x(52) at (0x7fffffffece4) -- Size = (4) 

-- ISN: (79805) : L from (0x7fffffffece4) -- of Size = (4) 

-- ISN: (79811) : L from (0x7fffffffece4) -- of Size = (4) 

-- ISN: (79812) : L from (0x7fffffffece4) -- of Size = (4) 

-- ISN: (79818) : L from (0x7fffffffece4) -- of Size = (4) 

-- ISN: (79821) : S -> 0x(53) at (0x7fffffffece4) -- Size = (4) 

-- ISN: (79817) : S -> 0x(52) at (0x6bc588) -- Size = (4) 

-- ISN: (79822) : L from (0x7fffffffece4) -- of Size = (4) 

-- ISN: (79828) : L from (0x7fffffffece4) -- of Size = (4) 

-- ISN: (79829) : L from (0x7fffffffece4) -- of Size = (4) 

-- ISN: (79835) : L from (0x7fffffffece4) -- of Size = (4) 

-- ISN: (79834) : S -> 0x(53) at (0x6bc58c) -- Size = (4) 

-- ISN: (79838) : S -> 0x(54) at (0x7fffffffece4) -- Size = (4) 

-- ISN: (79852) : L from (0x7fffffffece4) -- of Size = (4) 

-- ISN: (79839) : L from (0x7fffffffece4) -- of Size = (4) 

-- ISN: (79845) : L from (0x7fffffffece4) -- of Size = (4) 

-- ISN: (79846) : L from (0x7fffffffece4) -- of Size = (4) 

-- ISN: (79855) : S -> 0x(55) at (0x7fffffffece4) -- Size = (4) 

-- ISN: (79856) : L from (0x7fffffffece4) -- of Size = (4) 

-- ISN: (79862) : L from (0x7fffffffece4) -- of Size = (4) 

-- ISN: (79863) : L from (0x7fffffffece4) -- of Size = (4) 

-- ISN: (79869) : L from (0x7fffffffece4) -- of Size = (4) 

-- ISN: (79851) : S -> 0x(54) at (0x6bc590) -- Size = (4) 

-- ISN: (79872) : S -> 0x(56) at (0x7fffffffece4) -- Size = (4) 

-- ISN: (79868) : S -> 0x(55) at (0x6bc594) -- Size = (4) 

-- ISN: (79873) : L from (0x7fffffffece4) -- of Size = (4) 

-- ISN: (79879) : L from (0x7fffffffece4) -- of Size = (4) 

-- ISN: (79880) : L from (0x7fffffffece4) -- of Size = (4) 

-- ISN: (79886) : L from (0x7fffffffece4) -- of Size = (4) 

-- ISN: (79885) : S -> 0x(56) at (0x6bc598) -- Size = (4) 

-- ISN: (79889) : S -> 0x(57) at (0x7fffffffece4) -- Size = (4) 

-- ISN: (79903) : L from (0x7fffffffece4) -- of Size = (4) 

-- ISN: (79890) : L from (0x7fffffffece4) -- of Size = (4) 

-- ISN: (79896) : L from (0x7fffffffece4) -- of Size = (4) 

-- ISN: (79897) : L from (0x7fffffffece4) -- of Size = (4) 

-- ISN: (79906) : S -> 0x(58) at (0x7fffffffece4) -- Size = (4) 

-- ISN: (79920) : L from (0x7fffffffece4) -- of Size = (4) 

-- ISN: (79902) : S -> 0x(57) at (0x6bc59c) -- Size = (4) 

-- ISN: (79907) : L from (0x7fffffffece4) -- of Size = (4) 

-- ISN: (79913) : L from (0x7fffffffece4) -- of Size = (4) 

-- ISN: (79914) : L from (0x7fffffffece4) -- of Size = (4) 

-- ISN: (79923) : S -> 0x(59) at (0x7fffffffece4) -- Size = (4) 

-- ISN: (79924) : L from (0x7fffffffece4) -- of Size = (4) 

-- ISN: (79930) : L from (0x7fffffffece4) -- of Size = (4) 

-- ISN: (79931) : L from (0x7fffffffece4) -- of Size = (4) 

-- ISN: (79937) : L from (0x7fffffffece4) -- of Size = (4) 

-- ISN: (79919) : S -> 0x(58) at (0x6bc5a0) -- Size = (4) 

-- ISN: (79936) : S -> 0x(59) at (0x6bc5a4) -- Size = (4) 

-- ISN: (79940) : S -> 0x(5a) at (0x7fffffffece4) -- Size = (4) 

-- ISN: (79941) : L from (0x7fffffffece4) -- of Size = (4) 

-- ISN: (79947) : L from (0x7fffffffece4) -- of Size = (4) 

-- ISN: (79948) : L from (0x7fffffffece4) -- of Size = (4) 

-- ISN: (79954) : L from (0x7fffffffece4) -- of Size = (4) 

-- ISN: (79953) : S -> 0x(5a) at (0x6bc5a8) -- Size = (4) 

-- ISN: (79957) : S -> 0x(5b) at (0x7fffffffece4) -- Size = (4) 

-- ISN: (79958) : L from (0x7fffffffece4) -- of Size = (4) 

-- ISN: (79964) : L from (0x7fffffffece4) -- of Size = (4) 

-- ISN: (79965) : L from (0x7fffffffece4) -- of Size = (4) 

-- ISN: (79971) : L from (0x7fffffffece4) -- of Size = (4) 

-- ISN: (79970) : S -> 0x(5b) at (0x6bc5ac) -- Size = (4) 

-- ISN: (79974) : S -> 0x(5c) at (0x7fffffffece4) -- Size = (4) 

-- ISN: (79975) : L from (0x7fffffffece4) -- of Size = (4) 

-- ISN: (79981) : L from (0x7fffffffece4) -- of Size = (4) 

-- ISN: (79982) : L from (0x7fffffffece4) -- of Size = (4) 

-- ISN: (79988) : L from (0x7fffffffece4) -- of Size = (4) 

-- ISN: (79987) : S -> 0x(5c) at (0x6bc5b0) -- Size = (4) 

-- ISN: (79991) : S -> 0x(5d) at (0x7fffffffece4) -- Size = (4) 

-- ISN: (79992) : L from (0x7fffffffece4) -- of Size = (4) 

-- ISN: (79998) : L from (0x7fffffffece4) -- of Size = (4) 

-- ISN: (79999) : L from (0x7fffffffece4) -- of Size = (4) 

-- ISN: (80005) : L from (0x7fffffffece4) -- of Size = (4) 

-- ISN: (80004) : S -> 0x(5d) at (0x6bc5b4) -- Size = (4) 

-- ISN: (80008) : S -> 0x(5e) at (0x7fffffffece4) -- Size = (4) 

-- ISN: (80009) : L from (0x7fffffffece4) -- of Size = (4) 

-- ISN: (80015) : L from (0x7fffffffece4) -- of Size = (4) 

-- ISN: (80016) : L from (0x7fffffffece4) -- of Size = (4) 

-- ISN: (80022) : L from (0x7fffffffece4) -- of Size = (4) 

-- ISN: (80021) : S -> 0x(5e) at (0x6bc5b8) -- Size = (4) 

-- ISN: (80025) : S -> 0x(5f) at (0x7fffffffece4) -- Size = (4) 

-- ISN: (80026) : L from (0x7fffffffece4) -- of Size = (4) 

-- ISN: (80032) : L from (0x7fffffffece4) -- of Size = (4) 

-- ISN: (80033) : L from (0x7fffffffece4) -- of Size = (4) 

-- ISN: (80039) : L from (0x7fffffffece4) -- of Size = (4) 

-- ISN: (80038) : S -> 0x(5f) at (0x6bc5bc) -- Size = (4) 

-- ISN: (80042) : S -> 0x(60) at (0x7fffffffece4) -- Size = (4) 

-- ISN: (80043) : L from (0x7fffffffece4) -- of Size = (4) 

-- ISN: (80049) : L from (0x7fffffffece4) -- of Size = (4) 

-- ISN: (80050) : L from (0x7fffffffece4) -- of Size = (4) 

-- ISN: (80056) : L from (0x7fffffffece4) -- of Size = (4) 

-- ISN: (80055) : S -> 0x(60) at (0x6bc5c0) -- Size = (4) 

-- ISN: (80059) : S -> 0x(61) at (0x7fffffffece4) -- Size = (4) 

-- ISN: (80060) : L from (0x7fffffffece4) -- of Size = (4) 

-- ISN: (80066) : L from (0x7fffffffece4) -- of Size = (4) 

-- ISN: (80067) : L from (0x7fffffffece4) -- of Size = (4) 

-- ISN: (80073) : L from (0x7fffffffece4) -- of Size = (4) 

-- ISN: (80072) : S -> 0x(61) at (0x6bc5c4) -- Size = (4) 

-- ISN: (80076) : S -> 0x(62) at (0x7fffffffece4) -- Size = (4) 

-- ISN: (80077) : L from (0x7fffffffece4) -- of Size = (4) 

-- ISN: (80083) : L from (0x7fffffffece4) -- of Size = (4) 

-- ISN: (80084) : L from (0x7fffffffece4) -- of Size = (4) 

-- ISN: (80090) : L from (0x7fffffffece4) -- of Size = (4) 

-- ISN: (80093) : S -> 0x(63) at (0x7fffffffece4) -- Size = (4) 

-- ISN: (80089) : S -> 0x(62) at (0x6bc5c8) -- Size = (4) 

-- ISN: (80094) : L from (0x7fffffffece4) -- of Size = (4) 

-- ISN: (80100) : L from (0x7fffffffece4) -- of Size = (4) 

-- ISN: (80101) : L from (0x7fffffffece4) -- of Size = (4) 

-- ISN: (80107) : L from (0x7fffffffece4) -- of Size = (4) 

-- ISN: (80106) : S -> 0x(63) at (0x6bc5cc) -- Size = (4) 

-- ISN: (80110) : S -> 0x(64) at (0x7fffffffece4) -- Size = (4) 

-- ISN: (80124) : L from (0x7fffffffece4) -- of Size = (4) 

-- ISN: (80111) : L from (0x7fffffffece4) -- of Size = (4) 

-- ISN: (80117) : L from (0x7fffffffece4) -- of Size = (4) 

-- ISN: (80118) : L from (0x7fffffffece4) -- of Size = (4) 

-- ISN: (80127) : S -> 0x(65) at (0x7fffffffece4) -- Size = (4) 

-- ISN: (80128) : L from (0x7fffffffece4) -- of Size = (4) 

-- ISN: (80134) : L from (0x7fffffffece4) -- of Size = (4) 

-- ISN: (80135) : L from (0x7fffffffece4) -- of Size = (4) 

-- ISN: (80141) : L from (0x7fffffffece4) -- of Size = (4) 

-- ISN: (80123) : S -> 0x(64) at (0x6bc5d0) -- Size = (4) 				 Transient Instruction of (array1 extra store)

-- Sqsh -> ISN (80116)

-- ISN: (80181) : L from (0x7fffffffece4) -- of Size = (4) 

-- ISN: (80177) : S -> 0x(0) at (0x7fffffffece4) -- Size = (4) 

-- ISN: (80188) : L from (0x7fffffffece4) -- of Size = (4) 

-- Sqsh -> ISN (80180)

-- ISN: (80244) : L from (0x7fffffffece4) -- of Size = (4) 

-- ISN: (80253) : S -> 0x(7c) at (0x7fffffffecd8) -- Size = (8) 

-- ISN: (80257) : S -> 0x(0) at (0x7fffffffece4) -- Size = (4) 

-- ISN: (80261) : L from (0x7fffffffece4) -- of Size = (4) 

-- ISN: (80265) : L from (0x7fffffffece4) -- of Size = (4) 

-- Sqsh -> ISN (80249)

-- ISN: (80319) : L from (0x7fffffffece4) -- of Size = (4) 

-- ISN: (80326) : L from (0x7fffffffece4) -- of Size = (4) 

-- ISN: (80323) : S -> 0x(61) at (0x7fffffffecd8) -- Size = (8) 

-- ISN: (80330) : L from (0x7fffffffece4) -- of Size = (4) 

-- Sqsh -> ISN (80325)

-- ISN: (80397) : S -> 0x(f0) at (0x7fffffffecd0) -- Size = (8) 

-- ISN: (80400) : S -> 0x(0) at (0x7fffffffeccc) -- Size = (4) 

-- ISN: (80402) : L from (0x7fffffffeccc) -- of Size = (4) 

-- ISN: (80412) : L from (0x7fffffffecd0) -- of Size = (8) 

-- ISN: (80408) : L from (0x6bc3a0) -- of Size = (4) 					First access of x

-- ISN: (80415) : L from (0x7fffffffecd8) -- of Size = (8) 

-- ISN: (80418) : L from (0x7fffffffece4) -- of Size = (4) 

-- ISN: (80422) : L from (0x7fffffffece4) -- of Size = (4) 

-- ISN: (80410) : S -> 0x(0) at (0x6bc424) -- Size = (4) 			First access of y

-- ISN: (80431) : S -> 0x(7c) at (0x7fffffffecd8) -- Size = (8) 

-- ISN: (80439) : L from (0x7fffffffece4) -- of Size = (4) 

-- Sqsh -> ISN (80433)

-- ISN: (80421) : S -> 0x(1) at (0x7fffffffece4) -- Size = (4) 

-- Sqsh -> ISN (80421)

-- ISN: (80481) : L from (0x7fffffffece4) -- of Size = (4) 

-- ISN: (80490) : S -> 0x(7c) at (0x7fffffffecd8) -- Size = (8) 

-- ISN: (80493) : S -> 0x(f0) at (0x7fffffffecd0) -- Size = (8) 

-- ISN: (80508) : L from (0x7fffffffecd0) -- of Size = (8) 

-- Sqsh -> ISN (80486)

-- ISN: (80538) : L from (0x7fffffffece4) -- of Size = (4) 

-- ISN: (80545) : L from (0x7fffffffece4) -- of Size = (4) 

-- ISN: (80542) : S -> 0x(61) at (0x7fffffffecd8) -- Size = (8) 

-- Sqsh -> ISN (80544)

-- ISN: (80608) : S -> 0x(f0) at (0x7fffffffecd0) -- Size = (8) 

-- ISN: (80611) : S -> 0x(1) at (0x7fffffffeccc) -- Size = (4) 

-- ISN: (80613) : L from (0x7fffffffeccc) -- of Size = (4) 

-- ISN: (80623) : L from (0x7fffffffecd0) -- of Size = (8) 

-- ISN: (80619) : L from (0x6bc3a0) -- of Size = (4) 

-- ISN: (80626) : L from (0x7fffffffecd8) -- of Size = (8) 

-- ISN: (80629) : L from (0x7fffffffece4) -- of Size = (4) 

-- ISN: (80621) : S -> 0x(0) at (0x6bc424) -- Size = (4) 

-- ISN: (80642) : S -> 0x(7c) at (0x7fffffffecd8) -- Size = (8) 

-- ISN: (80650) : L from (0x7fffffffece4) -- of Size = (4) 

-- Sqsh -> ISN (80644)

-- ISN: (80632) : S -> 0x(2) at (0x7fffffffece4) -- Size = (4) 

-- ISN: (80633) : L from (0x7fffffffece4) -- of Size = (4) 

-- Sqsh -> ISN (80638)

-- ISN: (80713) : L from (0x7fffffffece4) -- of Size = (4) 

-- ISN: (80720) : L from (0x7fffffffece4) -- of Size = (4) 

-- ISN: (80717) : S -> 0x(61) at (0x7fffffffecd8) -- Size = (8) 

-- Sqsh -> ISN (80719)

-- ISN: (80776) : S -> 0x(f0) at (0x7fffffffecd0) -- Size = (8) 

-- ISN: (80779) : S -> 0x(2) at (0x7fffffffeccc) -- Size = (4) 

-- ISN: (80781) : L from (0x7fffffffeccc) -- of Size = (4) 

-- ISN: (80791) : L from (0x7fffffffecd0) -- of Size = (8) 

-- ISN: (80787) : L from (0x6bc3a0) -- of Size = (4) 

-- ISN: (80794) : L from (0x7fffffffecd8) -- of Size = (8) 

-- ISN: (80797) : L from (0x7fffffffece4) -- of Size = (4) 

-- ISN: (80789) : S -> 0x(0) at (0x6bc424) -- Size = (4) 

-- ISN: (80810) : S -> 0x(7c) at (0x7fffffffecd8) -- Size = (8) 

-- ISN: (80818) : L from (0x7fffffffece4) -- of Size = (4) 

-- Sqsh -> ISN (80812)

-- ISN: (80800) : S -> 0x(3) at (0x7fffffffece4) -- Size = (4) 

-- ISN: (80801) : L from (0x7fffffffece4) -- of Size = (4) 

-- Sqsh -> ISN (80806)

-- ISN: (80881) : L from (0x7fffffffece4) -- of Size = (4) 

-- ISN: (80888) : L from (0x7fffffffece4) -- of Size = (4) 

-- ISN: (80885) : S -> 0x(61) at (0x7fffffffecd8) -- Size = (8) 

-- Sqsh -> ISN (80887)

-- ISN: (80944) : S -> 0x(f0) at (0x7fffffffecd0) -- Size = (8) 

-- ISN: (80947) : S -> 0x(3) at (0x7fffffffeccc) -- Size = (4) 

-- ISN: (80949) : L from (0x7fffffffeccc) -- of Size = (4) 

-- ISN: (80959) : L from (0x7fffffffecd0) -- of Size = (8) 

-- ISN: (80955) : L from (0x6bc3a0) -- of Size = (4) 

-- ISN: (80962) : L from (0x7fffffffecd8) -- of Size = (8) 

-- ISN: (80965) : L from (0x7fffffffece4) -- of Size = (4) 

-- ISN: (80957) : S -> 0x(0) at (0x6bc424) -- Size = (4) 

-- ISN: (80978) : S -> 0x(7c) at (0x7fffffffecd8) -- Size = (8) 

-- ISN: (80981) : S -> 0x(f0) at (0x7fffffffecd0) -- Size = (8) 

-- ISN: (80996) : L from (0x7fffffffecd0) -- of Size = (8) 

-- ISN: (80968) : S -> 0x(4) at (0x7fffffffece4) -- Size = (4) 

-- ISN: (80984) : S -> 0x(69) at (0x7fffffffeccc) -- Size = (4) 

-- ISN: (80986) : L from (0x7fffffffeccc) -- of Size = (4) 

-- ISN: (80992) : L from (0x6bc3a0) -- of Size = (4) 

-- ISN: (80969) : L from (0x7fffffffece4) -- of Size = (4) 

-- ISN: (80999) : L from (0x7fffffffecd8) -- of Size = (8) 

-- ISN: (80994) : S -> 0x(0) at (0x6bc424) -- Size = (4) 

-- ISN: (81007) : L from (0x7fffffffece4) -- of Size = (4) 

-- Sqsh -> ISN (80990)

-- Sqsh -> ISN (80974)

-- ISN: (81049) : L from (0x7fffffffece4) -- of Size = (4) 

-- ISN: (81053) : S -> 0x(61) at (0x7fffffffecd8) -- Size = (8) 

-- ISN: (81056) : S -> 0x(f0) at (0x7fffffffecd0) -- Size = (8) 

-- ISN: (81071) : L from (0x7fffffffecd0) -- of Size = (8) 

-- ISN: (81059) : S -> 0x(4) at (0x7fffffffeccc) -- Size = (4) 

-- ISN: (81061) : L from (0x7fffffffeccc) -- of Size = (4) 

-- ISN: (81067) : L from (0x6bc3a0) -- of Size = (4) 

-- ISN: (81074) : L from (0x7fffffffecd8) -- of Size = (8) 

-- ISN: (81077) : L from (0x7fffffffece4) -- of Size = (4) 

-- ISN: (81069) : S -> 0x(0) at (0x6bc424) -- Size = (4) 

-- ISN: (81091) : S -> 0x(61) at (0x7fffffffecd8) -- Size = (8) 

-- ISN: (81094) : S -> 0x(f0) at (0x7fffffffecd0) -- Size = (8) 

-- ISN: (81109) : L from (0x7fffffffecd0) -- of Size = (8) 

-- ISN: (81080) : S -> 0x(5) at (0x7fffffffece4) -- Size = (4) 

-- ISN: (81099) : L from (0x7fffffffeccc) -- of Size = (4) 

-- ISN: (81105) : L from (0x6bc3a0) -- of Size = (4) 

-- ISN: (81081) : L from (0x7fffffffece4) -- of Size = (4) 

-- ISN: (81087) : L from (0x7fffffffece4) -- of Size = (4) 

-- ISN: (81112) : L from (0x7fffffffecd8) -- of Size = (8) 

-- ISN: (81115) : L from (0x7fffffffece4) -- of Size = (4) 

-- ISN: (81107) : S -> 0x(0) at (0x6bc424) -- Size = (4) 

-- ISN: (81097) : S -> 0x(5) at (0x7fffffffeccc) -- Size = (4) 

-- ISN: (81129) : S -> 0x(61) at (0x7fffffffecd8) -- Size = (8) 

-- ISN: (81118) : S -> 0x(6) at (0x7fffffffece4) -- Size = (4) 

-- ISN: (81132) : S -> 0x(f0) at (0x7fffffffecd0) -- Size = (8) 

-- Sqsh -> ISN (81098)

-- ISN: (81163) : L from (0x7fffffffeccc) -- of Size = (4) 

-- ISN: (81169) : L from (0x6bc3a0) -- of Size = (4) 

-- ISN: (81173) : L from (0x7fffffffecd0) -- of Size = (8) 

-- ISN: (81176) : L from (0x7fffffffecd8) -- of Size = (8) 

-- ISN: (81171) : S -> 0x(0) at (0x6bc424) -- Size = (4) 

-- ISN: (81179) : L from (0x7fffffffece4) -- of Size = (4) 

-- ISN: (81193) : S -> 0x(61) at (0x7fffffffecd8) -- Size = (8) 

-- ISN: (81196) : S -> 0x(f0) at (0x7fffffffecd0) -- Size = (8) 

-- ISN: (81211) : L from (0x7fffffffecd0) -- of Size = (8) 

-- ISN: (81207) : L from (0x6bc3a0) -- of Size = (4) 

-- ISN: (81214) : L from (0x7fffffffecd8) -- of Size = (8) 

-- ISN: (81182) : S -> 0x(6) at (0x7fffffffece4) -- Size = (4) 

-- ISN: (81183) : L from (0x7fffffffece4) -- of Size = (4) 

-- ISN: (81189) : L from (0x7fffffffece4) -- of Size = (4) 

-- ISN: (81217) : L from (0x7fffffffece4) -- of Size = (4) 

-- ISN: (81209) : S -> 0x(0) at (0x6bc424) -- Size = (4) 

-- ISN: (81231) : S -> 0x(61) at (0x7fffffffecd8) -- Size = (8) 

-- ISN: (81199) : S -> 0x(6) at (0x7fffffffeccc) -- Size = (4) 

-- ISN: (81220) : S -> 0x(7) at (0x7fffffffece4) -- Size = (4) 

-- ISN: (81201) : L from (0x7fffffffeccc) -- of Size = (4) 

-- ISN: (81221) : L from (0x7fffffffece4) -- of Size = (4) 

-- ISN: (81227) : L from (0x7fffffffece4) -- of Size = (4) 

-- ISN: (81234) : S -> 0x(f0) at (0x7fffffffecd0) -- Size = (8) 

-- ISN: (81237) : S -> 0x(7) at (0x7fffffffeccc) -- Size = (4) 

-- ISN: (81239) : L from (0x7fffffffeccc) -- of Size = (4) 

-- ISN: (81245) : L from (0x6bc3a0) -- of Size = (4) 

-- ISN: (81249) : L from (0x7fffffffecd0) -- of Size = (8) 

-- ISN: (81247) : S -> 0x(0) at (0x6bc424) -- Size = (4) 

-- ISN: (81252) : L from (0x7fffffffecd8) -- of Size = (8) 

-- ISN: (81255) : L from (0x7fffffffece4) -- of Size = (4) 

-- ISN: (81269) : S -> 0x(61) at (0x7fffffffecd8) -- Size = (8) 

-- ISN: (81258) : S -> 0x(8) at (0x7fffffffece4) -- Size = (4) 

-- ISN: (81272) : S -> 0x(f0) at (0x7fffffffecd0) -- Size = (8) 

-- ISN: (81259) : L from (0x7fffffffece4) -- of Size = (4) 

-- ISN: (81265) : L from (0x7fffffffece4) -- of Size = (4) 

-- ISN: (81283) : L from (0x6bc3a0) -- of Size = (4) 

-- ISN: (81275) : S -> 0x(8) at (0x7fffffffeccc) -- Size = (4) 

-- ISN: (81277) : L from (0x7fffffffeccc) -- of Size = (4) 

-- ISN: (81285) : S -> 0x(0) at (0x6bc424) -- Size = (4) 

-- ISN: (81287) : L from (0x7fffffffecd0) -- of Size = (8) 

-- ISN: (81290) : L from (0x7fffffffecd8) -- of Size = (8) 

-- ISN: (81293) : L from (0x7fffffffece4) -- of Size = (4) 

-- ISN: (81307) : S -> 0x(61) at (0x7fffffffecd8) -- Size = (8) 

-- ISN: (81310) : S -> 0x(f0) at (0x7fffffffecd0) -- Size = (8) 

-- ISN: (81296) : S -> 0x(9) at (0x7fffffffece4) -- Size = (4) 

-- ISN: (81297) : L from (0x7fffffffece4) -- of Size = (4) 

-- ISN: (81303) : L from (0x7fffffffece4) -- of Size = (4) 

-- ISN: (81325) : L from (0x7fffffffecd0) -- of Size = (8) 

-- ISN: (81321) : L from (0x6bc3a0) -- of Size = (4) 

-- ISN: (81328) : L from (0x7fffffffecd8) -- of Size = (8) 

-- ISN: (81313) : S -> 0x(9) at (0x7fffffffeccc) -- Size = (4) 

-- ISN: (81315) : L from (0x7fffffffeccc) -- of Size = (4) 

-- ISN: (81331) : L from (0x7fffffffece4) -- of Size = (4) 

-- ISN: (81323) : S -> 0x(0) at (0x6bc424) -- Size = (4) 

-- ISN: (81334) : S -> 0x(a) at (0x7fffffffece4) -- Size = (4) 

-- ISN: (81345) : S -> 0x(61) at (0x7fffffffecd8) -- Size = (8) 

-- ISN: (81348) : S -> 0x(f0) at (0x7fffffffecd0) -- Size = (8) 

-- ISN: (81335) : L from (0x7fffffffece4) -- of Size = (4) 

-- ISN: (81341) : L from (0x7fffffffece4) -- of Size = (4) 

-- ISN: (81359) : L from (0x6bc3a0) -- of Size = (4) 

-- ISN: (81351) : S -> 0x(a) at (0x7fffffffeccc) -- Size = (4) 

-- ISN: (81363) : L from (0x7fffffffecd0) -- of Size = (8) 

-- ISN: (81353) : L from (0x7fffffffeccc) -- of Size = (4) 

-- ISN: (81366) : L from (0x7fffffffecd8) -- of Size = (8) 

-- ISN: (81361) : S -> 0x(0) at (0x6bc424) -- Size = (4) 

-- ISN: (81369) : L from (0x7fffffffece4) -- of Size = (4) 

-- ISN: (81383) : S -> 0x(61) at (0x7fffffffecd8) -- Size = (8) 

-- ISN: (81372) : S -> 0x(b) at (0x7fffffffece4) -- Size = (4) 

-- ISN: (81386) : S -> 0x(f0) at (0x7fffffffecd0) -- Size = (8) 

-- ISN: (81373) : L from (0x7fffffffece4) -- of Size = (4) 

-- ISN: (81379) : L from (0x7fffffffece4) -- of Size = (4) 

-- ISN: (81397) : L from (0x6bc3a0) -- of Size = (4) 

-- ISN: (81389) : S -> 0x(b) at (0x7fffffffeccc) -- Size = (4) 

-- ISN: (81391) : L from (0x7fffffffeccc) -- of Size = (4) 

-- ISN: (81401) : L from (0x7fffffffecd0) -- of Size = (8) 

-- ISN: (81399) : S -> 0x(0) at (0x6bc424) -- Size = (4) 

-- ISN: (81404) : L from (0x7fffffffecd8) -- of Size = (8) 

-- ISN: (81407) : L from (0x7fffffffece4) -- of Size = (4) 

-- ISN: (81421) : S -> 0x(61) at (0x7fffffffecd8) -- Size = (8) 

-- ISN: (81424) : S -> 0x(f0) at (0x7fffffffecd0) -- Size = (8) 

-- ISN: (81410) : S -> 0x(c) at (0x7fffffffece4) -- Size = (4) 

-- ISN: (81411) : L from (0x7fffffffece4) -- of Size = (4) 

-- ISN: (81417) : L from (0x7fffffffece4) -- of Size = (4) 

-- ISN: (81435) : L from (0x6bc3a0) -- of Size = (4) 

-- ISN: (81427) : S -> 0x(c) at (0x7fffffffeccc) -- Size = (4) 

-- ISN: (81429) : L from (0x7fffffffeccc) -- of Size = (4) 

-- ISN: (81437) : S -> 0x(0) at (0x6bc424) -- Size = (4) 

-- ISN: (81439) : L from (0x7fffffffecd0) -- of Size = (8) 

-- ISN: (81442) : L from (0x7fffffffecd8) -- of Size = (8) 

-- ISN: (81445) : L from (0x7fffffffece4) -- of Size = (4) 

-- ISN: (81459) : S -> 0x(61) at (0x7fffffffecd8) -- Size = (8) 

-- ISN: (81462) : S -> 0x(f0) at (0x7fffffffecd0) -- Size = (8) 

-- ISN: (81448) : S -> 0x(d) at (0x7fffffffece4) -- Size = (4) 

-- ISN: (81449) : L from (0x7fffffffece4) -- of Size = (4) 

-- ISN: (81455) : L from (0x7fffffffece4) -- of Size = (4) 

-- ISN: (81477) : L from (0x7fffffffecd0) -- of Size = (8) 

-- ISN: (81473) : L from (0x6bc3a0) -- of Size = (4) 

-- ISN: (81480) : L from (0x7fffffffecd8) -- of Size = (8) 

-- ISN: (81465) : S -> 0x(d) at (0x7fffffffeccc) -- Size = (4) 

-- ISN: (81467) : L from (0x7fffffffeccc) -- of Size = (4) 

-- ISN: (81483) : L from (0x7fffffffece4) -- of Size = (4) 

-- ISN: (81475) : S -> 0x(0) at (0x6bc424) -- Size = (4) 

-- ISN: (81486) : S -> 0x(e) at (0x7fffffffece4) -- Size = (4) 

-- ISN: (81497) : S -> 0x(61) at (0x7fffffffecd8) -- Size = (8) 

-- ISN: (81500) : S -> 0x(f0) at (0x7fffffffecd0) -- Size = (8) 

-- ISN: (81487) : L from (0x7fffffffece4) -- of Size = (4) 

-- ISN: (81493) : L from (0x7fffffffece4) -- of Size = (4) 

-- ISN: (81511) : L from (0x6bc3a0) -- of Size = (4) 

-- ISN: (81503) : S -> 0x(e) at (0x7fffffffeccc) -- Size = (4) 

-- ISN: (81515) : L from (0x7fffffffecd0) -- of Size = (8) 

-- ISN: (81505) : L from (0x7fffffffeccc) -- of Size = (4) 

-- ISN: (81518) : L from (0x7fffffffecd8) -- of Size = (8) 

-- ISN: (81513) : S -> 0x(0) at (0x6bc424) -- Size = (4) 

-- ISN: (81521) : L from (0x7fffffffece4) -- of Size = (4) 

-- ISN: (81535) : S -> 0x(61) at (0x7fffffffecd8) -- Size = (8) 

-- ISN: (81524) : S -> 0x(f) at (0x7fffffffece4) -- Size = (4) 

-- ISN: (81538) : S -> 0x(f0) at (0x7fffffffecd0) -- Size = (8) 

-- ISN: (81525) : L from (0x7fffffffece4) -- of Size = (4) 

-- ISN: (81531) : L from (0x7fffffffece4) -- of Size = (4) 

-- ISN: (81549) : L from (0x6bc3a0) -- of Size = (4) 

-- ISN: (81541) : S -> 0x(f) at (0x7fffffffeccc) -- Size = (4) 

-- ISN: (81543) : L from (0x7fffffffeccc) -- of Size = (4) 

-- ISN: (81553) : L from (0x7fffffffecd0) -- of Size = (8) 

-- ISN: (81551) : S -> 0x(0) at (0x6bc424) -- Size = (4) 

-- ISN: (81556) : L from (0x7fffffffecd8) -- of Size = (8) 

-- ISN: (81559) : L from (0x7fffffffece4) -- of Size = (4) 

-- ISN: (81573) : S -> 0x(61) at (0x7fffffffecd8) -- Size = (8) 

-- ISN: (81576) : S -> 0x(f0) at (0x7fffffffecd0) -- Size = (8) 

-- ISN: (81562) : S -> 0x(10) at (0x7fffffffece4) -- Size = (4) 

-- ISN: (81563) : L from (0x7fffffffece4) -- of Size = (4) 

-- ISN: (81569) : L from (0x7fffffffece4) -- of Size = (4) 

-- ISN: (81587) : L from (0x6bc3a0) -- of Size = (4) 

-- ISN: (81579) : S -> 0x(10) at (0x7fffffffeccc) -- Size = (4) 

-- ISN: (81581) : L from (0x7fffffffeccc) -- of Size = (4) 

-- ISN: (81589) : S -> 0x(0) at (0x6bc424) -- Size = (4) 

-- ISN: (81591) : L from (0x7fffffffecd0) -- of Size = (8) 

-- ISN: (81594) : L from (0x7fffffffecd8) -- of Size = (8) 

-- ISN: (81597) : L from (0x7fffffffece4) -- of Size = (4) 

-- ISN: (81611) : S -> 0x(61) at (0x7fffffffecd8) -- Size = (8) 

-- ISN: (81614) : S -> 0x(f0) at (0x7fffffffecd0) -- Size = (8) 

-- ISN: (81600) : S -> 0x(11) at (0x7fffffffece4) -- Size = (4) 

-- ISN: (81601) : L from (0x7fffffffece4) -- of Size = (4) 

-- ISN: (81607) : L from (0x7fffffffece4) -- of Size = (4) 

-- ISN: (81629) : L from (0x7fffffffecd0) -- of Size = (8) 

-- ISN: (81625) : L from (0x6bc3a0) -- of Size = (4) 

-- ISN: (81632) : L from (0x7fffffffecd8) -- of Size = (8) 

-- ISN: (81617) : S -> 0x(11) at (0x7fffffffeccc) -- Size = (4) 

-- ISN: (81619) : L from (0x7fffffffeccc) -- of Size = (4) 

-- ISN: (81635) : L from (0x7fffffffece4) -- of Size = (4) 

-- ISN: (81627) : S -> 0x(0) at (0x6bc424) -- Size = (4) 

-- ISN: (81638) : S -> 0x(12) at (0x7fffffffece4) -- Size = (4) 

-- ISN: (81649) : S -> 0x(61) at (0x7fffffffecd8) -- Size = (8) 

-- ISN: (81652) : S -> 0x(f0) at (0x7fffffffecd0) -- Size = (8) 

-- ISN: (81639) : L from (0x7fffffffece4) -- of Size = (4) 

-- ISN: (81645) : L from (0x7fffffffece4) -- of Size = (4) 

-- ISN: (81663) : L from (0x6bc3a0) -- of Size = (4) 

-- ISN: (81655) : S -> 0x(12) at (0x7fffffffeccc) -- Size = (4) 

-- ISN: (81667) : L from (0x7fffffffecd0) -- of Size = (8) 

-- ISN: (81657) : L from (0x7fffffffeccc) -- of Size = (4) 

-- ISN: (81670) : L from (0x7fffffffecd8) -- of Size = (8) 

-- ISN: (81665) : S -> 0x(0) at (0x6bc424) -- Size = (4) 

-- ISN: (81673) : L from (0x7fffffffece4) -- of Size = (4) 

-- ISN: (81687) : S -> 0x(61) at (0x7fffffffecd8) -- Size = (8) 

-- ISN: (81676) : S -> 0x(13) at (0x7fffffffece4) -- Size = (4) 

-- ISN: (81690) : S -> 0x(f0) at (0x7fffffffecd0) -- Size = (8) 

-- ISN: (81677) : L from (0x7fffffffece4) -- of Size = (4) 

-- ISN: (81683) : L from (0x7fffffffece4) -- of Size = (4) 

-- ISN: (81701) : L from (0x6bc3a0) -- of Size = (4) 

-- ISN: (81693) : S -> 0x(13) at (0x7fffffffeccc) -- Size = (4) 

-- ISN: (81695) : L from (0x7fffffffeccc) -- of Size = (4) 

-- ISN: (81705) : L from (0x7fffffffecd0) -- of Size = (8) 

-- ISN: (81703) : S -> 0x(0) at (0x6bc424) -- Size = (4) 

-- ISN: (81708) : L from (0x7fffffffecd8) -- of Size = (8) 

-- ISN: (81711) : L from (0x7fffffffece4) -- of Size = (4) 

-- ISN: (81725) : S -> 0x(61) at (0x7fffffffecd8) -- Size = (8) 

-- ISN: (81728) : S -> 0x(f0) at (0x7fffffffecd0) -- Size = (8) 

-- ISN: (81714) : S -> 0x(14) at (0x7fffffffece4) -- Size = (4) 

-- ISN: (81715) : L from (0x7fffffffece4) -- of Size = (4) 

-- ISN: (81721) : L from (0x7fffffffece4) -- of Size = (4) 

-- ISN: (81739) : L from (0x6bc3a0) -- of Size = (4) 

-- ISN: (81731) : S -> 0x(14) at (0x7fffffffeccc) -- Size = (4) 

-- ISN: (81733) : L from (0x7fffffffeccc) -- of Size = (4) 

-- ISN: (81741) : S -> 0x(0) at (0x6bc424) -- Size = (4) 

-- ISN: (81743) : L from (0x7fffffffecd0) -- of Size = (8) 

-- ISN: (81746) : L from (0x7fffffffecd8) -- of Size = (8) 

-- ISN: (81749) : L from (0x7fffffffece4) -- of Size = (4) 

-- ISN: (81763) : S -> 0x(61) at (0x7fffffffecd8) -- Size = (8) 

-- ISN: (81766) : S -> 0x(f0) at (0x7fffffffecd0) -- Size = (8) 

-- ISN: (81752) : S -> 0x(15) at (0x7fffffffece4) -- Size = (4) 

-- ISN: (81753) : L from (0x7fffffffece4) -- of Size = (4) 

-- ISN: (81759) : L from (0x7fffffffece4) -- of Size = (4) 

-- ISN: (81781) : L from (0x7fffffffecd0) -- of Size = (8) 

-- ISN: (81777) : L from (0x6bc3a0) -- of Size = (4) 

-- ISN: (81784) : L from (0x7fffffffecd8) -- of Size = (8) 

-- ISN: (81769) : S -> 0x(15) at (0x7fffffffeccc) -- Size = (4) 

-- ISN: (81771) : L from (0x7fffffffeccc) -- of Size = (4) 

-- ISN: (81787) : L from (0x7fffffffece4) -- of Size = (4) 

-- ISN: (81779) : S -> 0x(0) at (0x6bc424) -- Size = (4) 

-- ISN: (81790) : S -> 0x(16) at (0x7fffffffece4) -- Size = (4) 

-- ISN: (81801) : S -> 0x(61) at (0x7fffffffecd8) -- Size = (8) 

-- ISN: (81804) : S -> 0x(f0) at (0x7fffffffecd0) -- Size = (8) 

-- ISN: (81791) : L from (0x7fffffffece4) -- of Size = (4) 

-- ISN: (81797) : L from (0x7fffffffece4) -- of Size = (4) 

-- ISN: (81815) : L from (0x6bc3a0) -- of Size = (4) 

-- ISN: (81807) : S -> 0x(16) at (0x7fffffffeccc) -- Size = (4) 

-- ISN: (81819) : L from (0x7fffffffecd0) -- of Size = (8) 

-- ISN: (81809) : L from (0x7fffffffeccc) -- of Size = (4) 

-- ISN: (81822) : L from (0x7fffffffecd8) -- of Size = (8) 

-- ISN: (81817) : S -> 0x(0) at (0x6bc424) -- Size = (4) 

-- ISN: (81825) : L from (0x7fffffffece4) -- of Size = (4) 

-- ISN: (81839) : S -> 0x(61) at (0x7fffffffecd8) -- Size = (8) 

-- ISN: (81828) : S -> 0x(17) at (0x7fffffffece4) -- Size = (4) 

-- ISN: (81842) : S -> 0x(f0) at (0x7fffffffecd0) -- Size = (8) 

-- ISN: (81829) : L from (0x7fffffffece4) -- of Size = (4) 

-- ISN: (81835) : L from (0x7fffffffece4) -- of Size = (4) 

-- ISN: (81853) : L from (0x6bc3a0) -- of Size = (4) 

-- ISN: (81845) : S -> 0x(17) at (0x7fffffffeccc) -- Size = (4) 

-- ISN: (81847) : L from (0x7fffffffeccc) -- of Size = (4) 

-- ISN: (81857) : L from (0x7fffffffecd0) -- of Size = (8) 

-- ISN: (81855) : S -> 0x(0) at (0x6bc424) -- Size = (4) 

-- ISN: (81860) : L from (0x7fffffffecd8) -- of Size = (8) 

-- ISN: (81863) : L from (0x7fffffffece4) -- of Size = (4) 

-- ISN: (81877) : S -> 0x(61) at (0x7fffffffecd8) -- Size = (8) 

-- ISN: (81880) : S -> 0x(f0) at (0x7fffffffecd0) -- Size = (8) 

-- ISN: (81866) : S -> 0x(18) at (0x7fffffffece4) -- Size = (4) 

-- ISN: (81867) : L from (0x7fffffffece4) -- of Size = (4) 

-- ISN: (81873) : L from (0x7fffffffece4) -- of Size = (4) 

-- ISN: (81891) : L from (0x6bc3a0) -- of Size = (4) 

-- ISN: (81883) : S -> 0x(18) at (0x7fffffffeccc) -- Size = (4) 

-- ISN: (81885) : L from (0x7fffffffeccc) -- of Size = (4) 

-- ISN: (81893) : S -> 0x(0) at (0x6bc424) -- Size = (4) 

-- ISN: (81895) : L from (0x7fffffffecd0) -- of Size = (8) 

-- ISN: (81898) : L from (0x7fffffffecd8) -- of Size = (8) 

-- ISN: (81901) : L from (0x7fffffffece4) -- of Size = (4) 

-- ISN: (81915) : S -> 0x(61) at (0x7fffffffecd8) -- Size = (8) 

-- ISN: (81918) : S -> 0x(f0) at (0x7fffffffecd0) -- Size = (8) 

-- ISN: (81904) : S -> 0x(19) at (0x7fffffffece4) -- Size = (4) 

-- ISN: (81905) : L from (0x7fffffffece4) -- of Size = (4) 

-- ISN: (81911) : L from (0x7fffffffece4) -- of Size = (4) 

-- ISN: (81933) : L from (0x7fffffffecd0) -- of Size = (8) 

-- ISN: (81929) : L from (0x6bc3a0) -- of Size = (4) 

-- ISN: (81936) : L from (0x7fffffffecd8) -- of Size = (8) 

-- ISN: (81921) : S -> 0x(19) at (0x7fffffffeccc) -- Size = (4) 

-- ISN: (81923) : L from (0x7fffffffeccc) -- of Size = (4) 

-- ISN: (81939) : L from (0x7fffffffece4) -- of Size = (4) 

-- ISN: (81931) : S -> 0x(0) at (0x6bc424) -- Size = (4) 

-- ISN: (81942) : S -> 0x(1a) at (0x7fffffffece4) -- Size = (4) 

-- ISN: (81953) : S -> 0x(61) at (0x7fffffffecd8) -- Size = (8) 

-- ISN: (81956) : S -> 0x(f0) at (0x7fffffffecd0) -- Size = (8) 

-- ISN: (81943) : L from (0x7fffffffece4) -- of Size = (4) 

-- ISN: (81949) : L from (0x7fffffffece4) -- of Size = (4) 

-- ISN: (81967) : L from (0x6bc3a0) -- of Size = (4) 

-- ISN: (81959) : S -> 0x(1a) at (0x7fffffffeccc) -- Size = (4) 

-- ISN: (81971) : L from (0x7fffffffecd0) -- of Size = (8) 

-- ISN: (81961) : L from (0x7fffffffeccc) -- of Size = (4) 

-- ISN: (81974) : L from (0x7fffffffecd8) -- of Size = (8) 

-- ISN: (81969) : S -> 0x(0) at (0x6bc424) -- Size = (4) 

-- ISN: (81977) : L from (0x7fffffffece4) -- of Size = (4) 

-- ISN: (81991) : S -> 0x(61) at (0x7fffffffecd8) -- Size = (8) 

-- ISN: (81980) : S -> 0x(1b) at (0x7fffffffece4) -- Size = (4) 

-- ISN: (81994) : S -> 0x(f0) at (0x7fffffffecd0) -- Size = (8) 

-- ISN: (81981) : L from (0x7fffffffece4) -- of Size = (4) 

-- ISN: (81987) : L from (0x7fffffffece4) -- of Size = (4) 

-- ISN: (82005) : L from (0x6bc3a0) -- of Size = (4) 

-- ISN: (81997) : S -> 0x(1b) at (0x7fffffffeccc) -- Size = (4) 

-- ISN: (81999) : L from (0x7fffffffeccc) -- of Size = (4) 

-- ISN: (82009) : L from (0x7fffffffecd0) -- of Size = (8) 

-- ISN: (82007) : S -> 0x(0) at (0x6bc424) -- Size = (4) 

-- ISN: (82012) : L from (0x7fffffffecd8) -- of Size = (8) 

-- ISN: (82015) : L from (0x7fffffffece4) -- of Size = (4) 

-- ISN: (82029) : S -> 0x(61) at (0x7fffffffecd8) -- Size = (8) 

-- ISN: (82032) : S -> 0x(f0) at (0x7fffffffecd0) -- Size = (8) 

-- ISN: (82018) : S -> 0x(1c) at (0x7fffffffece4) -- Size = (4) 

-- ISN: (82019) : L from (0x7fffffffece4) -- of Size = (4) 

-- ISN: (82025) : L from (0x7fffffffece4) -- of Size = (4) 

-- ISN: (82043) : L from (0x6bc3a0) -- of Size = (4) 

-- ISN: (82035) : S -> 0x(1c) at (0x7fffffffeccc) -- Size = (4) 

-- ISN: (82037) : L from (0x7fffffffeccc) -- of Size = (4) 

-- ISN: (82045) : S -> 0x(0) at (0x6bc424) -- Size = (4) 

-- ISN: (82047) : L from (0x7fffffffecd0) -- of Size = (8) 

-- ISN: (82050) : L from (0x7fffffffecd8) -- of Size = (8) 

-- ISN: (82053) : L from (0x7fffffffece4) -- of Size = (4) 

-- ISN: (82067) : S -> 0x(61) at (0x7fffffffecd8) -- Size = (8) 

-- ISN: (82070) : S -> 0x(f0) at (0x7fffffffecd0) -- Size = (8) 

-- ISN: (82056) : S -> 0x(1d) at (0x7fffffffece4) -- Size = (4) 

-- ISN: (82057) : L from (0x7fffffffece4) -- of Size = (4) 

-- ISN: (82063) : L from (0x7fffffffece4) -- of Size = (4) 

-- ISN: (82085) : L from (0x7fffffffecd0) -- of Size = (8) 

-- ISN: (82081) : L from (0x6bc3a0) -- of Size = (4) 

-- ISN: (82088) : L from (0x7fffffffecd8) -- of Size = (8) 

-- ISN: (82073) : S -> 0x(1d) at (0x7fffffffeccc) -- Size = (4) 

-- ISN: (82075) : L from (0x7fffffffeccc) -- of Size = (4) 

-- ISN: (82091) : L from (0x7fffffffece4) -- of Size = (4) 

-- ISN: (82083) : S -> 0x(0) at (0x6bc424) -- Size = (4) 

-- ISN: (82094) : S -> 0x(1e) at (0x7fffffffece4) -- Size = (4) 

-- ISN: (82105) : S -> 0x(61) at (0x7fffffffecd8) -- Size = (8) 

-- ISN: (82108) : S -> 0x(f0) at (0x7fffffffecd0) -- Size = (8) 

-- ISN: (82095) : L from (0x7fffffffece4) -- of Size = (4) 

-- ISN: (82101) : L from (0x7fffffffece4) -- of Size = (4) 

-- ISN: (82119) : L from (0x6bc3a0) -- of Size = (4) 

-- ISN: (82111) : S -> 0x(1e) at (0x7fffffffeccc) -- Size = (4) 

-- ISN: (82123) : L from (0x7fffffffecd0) -- of Size = (8) 

-- ISN: (82113) : L from (0x7fffffffeccc) -- of Size = (4) 

-- ISN: (82126) : L from (0x7fffffffecd8) -- of Size = (8) 

-- ISN: (82121) : S -> 0x(0) at (0x6bc424) -- Size = (4) 

-- ISN: (82129) : L from (0x7fffffffece4) -- of Size = (4) 

-- ISN: (82143) : S -> 0x(61) at (0x7fffffffecd8) -- Size = (8) 

-- ISN: (82132) : S -> 0x(1f) at (0x7fffffffece4) -- Size = (4) 

-- ISN: (82146) : S -> 0x(f0) at (0x7fffffffecd0) -- Size = (8) 

-- ISN: (82133) : L from (0x7fffffffece4) -- of Size = (4) 

-- ISN: (82139) : L from (0x7fffffffece4) -- of Size = (4) 

-- ISN: (82157) : L from (0x6bc3a0) -- of Size = (4) 

-- ISN: (82149) : S -> 0x(1f) at (0x7fffffffeccc) -- Size = (4) 

-- ISN: (82151) : L from (0x7fffffffeccc) -- of Size = (4) 

-- ISN: (82161) : L from (0x7fffffffecd0) -- of Size = (8) 

-- ISN: (82159) : S -> 0x(0) at (0x6bc424) -- Size = (4) 

-- ISN: (82164) : L from (0x7fffffffecd8) -- of Size = (8) 

-- ISN: (82167) : L from (0x7fffffffece4) -- of Size = (4) 

-- ISN: (82181) : S -> 0x(61) at (0x7fffffffecd8) -- Size = (8) 

-- ISN: (82184) : S -> 0x(f0) at (0x7fffffffecd0) -- Size = (8) 

-- ISN: (82170) : S -> 0x(20) at (0x7fffffffece4) -- Size = (4) 

-- ISN: (82171) : L from (0x7fffffffece4) -- of Size = (4) 

-- ISN: (82177) : L from (0x7fffffffece4) -- of Size = (4) 

-- ISN: (82195) : L from (0x6bc3a0) -- of Size = (4) 

-- ISN: (82187) : S -> 0x(20) at (0x7fffffffeccc) -- Size = (4) 

-- ISN: (82189) : L from (0x7fffffffeccc) -- of Size = (4) 

-- ISN: (82197) : S -> 0x(0) at (0x6bc424) -- Size = (4) 

-- ISN: (82199) : L from (0x7fffffffecd0) -- of Size = (8) 

-- ISN: (82202) : L from (0x7fffffffecd8) -- of Size = (8) 

-- ISN: (82205) : L from (0x7fffffffece4) -- of Size = (4) 

-- ISN: (82219) : S -> 0x(61) at (0x7fffffffecd8) -- Size = (8) 

-- ISN: (82222) : S -> 0x(f0) at (0x7fffffffecd0) -- Size = (8) 

-- ISN: (82208) : S -> 0x(21) at (0x7fffffffece4) -- Size = (4) 

-- ISN: (82209) : L from (0x7fffffffece4) -- of Size = (4) 

-- ISN: (82215) : L from (0x7fffffffece4) -- of Size = (4) 

-- ISN: (82237) : L from (0x7fffffffecd0) -- of Size = (8) 

-- ISN: (82233) : L from (0x6bc3a0) -- of Size = (4) 

-- ISN: (82240) : L from (0x7fffffffecd8) -- of Size = (8) 

-- ISN: (82225) : S -> 0x(21) at (0x7fffffffeccc) -- Size = (4) 

-- ISN: (82227) : L from (0x7fffffffeccc) -- of Size = (4) 

-- ISN: (82243) : L from (0x7fffffffece4) -- of Size = (4) 

-- ISN: (82235) : S -> 0x(0) at (0x6bc424) -- Size = (4) 

-- ISN: (82246) : S -> 0x(22) at (0x7fffffffece4) -- Size = (4) 

-- ISN: (82257) : S -> 0x(61) at (0x7fffffffecd8) -- Size = (8) 

-- ISN: (82260) : S -> 0x(f0) at (0x7fffffffecd0) -- Size = (8) 

-- ISN: (82247) : L from (0x7fffffffece4) -- of Size = (4) 

-- ISN: (82253) : L from (0x7fffffffece4) -- of Size = (4) 

-- ISN: (82271) : L from (0x6bc3a0) -- of Size = (4) 

-- ISN: (82263) : S -> 0x(22) at (0x7fffffffeccc) -- Size = (4) 

-- ISN: (82275) : L from (0x7fffffffecd0) -- of Size = (8) 

-- ISN: (82265) : L from (0x7fffffffeccc) -- of Size = (4) 

-- ISN: (82278) : L from (0x7fffffffecd8) -- of Size = (8) 

-- ISN: (82273) : S -> 0x(0) at (0x6bc424) -- Size = (4) 

-- ISN: (82281) : L from (0x7fffffffece4) -- of Size = (4) 

-- ISN: (82295) : S -> 0x(61) at (0x7fffffffecd8) -- Size = (8) 

-- ISN: (82284) : S -> 0x(23) at (0x7fffffffece4) -- Size = (4) 

-- ISN: (82298) : S -> 0x(f0) at (0x7fffffffecd0) -- Size = (8) 

-- ISN: (82285) : L from (0x7fffffffece4) -- of Size = (4) 

-- ISN: (82291) : L from (0x7fffffffece4) -- of Size = (4) 

-- ISN: (82309) : L from (0x6bc3a0) -- of Size = (4) 

-- ISN: (82301) : S -> 0x(23) at (0x7fffffffeccc) -- Size = (4) 

-- ISN: (82303) : L from (0x7fffffffeccc) -- of Size = (4) 

-- ISN: (82313) : L from (0x7fffffffecd0) -- of Size = (8) 

-- ISN: (82311) : S -> 0x(0) at (0x6bc424) -- Size = (4) 

-- ISN: (82316) : L from (0x7fffffffecd8) -- of Size = (8) 

-- ISN: (82319) : L from (0x7fffffffece4) -- of Size = (4) 

-- ISN: (82333) : S -> 0x(61) at (0x7fffffffecd8) -- Size = (8) 

-- ISN: (82336) : S -> 0x(f0) at (0x7fffffffecd0) -- Size = (8) 

-- ISN: (82322) : S -> 0x(24) at (0x7fffffffece4) -- Size = (4) 

-- ISN: (82323) : L from (0x7fffffffece4) -- of Size = (4) 

-- ISN: (82329) : L from (0x7fffffffece4) -- of Size = (4) 

-- ISN: (82347) : L from (0x6bc3a0) -- of Size = (4) 

-- ISN: (82339) : S -> 0x(24) at (0x7fffffffeccc) -- Size = (4) 

-- ISN: (82341) : L from (0x7fffffffeccc) -- of Size = (4) 

-- ISN: (82349) : S -> 0x(0) at (0x6bc424) -- Size = (4) 

-- ISN: (82351) : L from (0x7fffffffecd0) -- of Size = (8) 

-- ISN: (82354) : L from (0x7fffffffecd8) -- of Size = (8) 

-- ISN: (82357) : L from (0x7fffffffece4) -- of Size = (4) 

-- ISN: (82371) : S -> 0x(61) at (0x7fffffffecd8) -- Size = (8) 

-- ISN: (82374) : S -> 0x(f0) at (0x7fffffffecd0) -- Size = (8) 

-- ISN: (82360) : S -> 0x(25) at (0x7fffffffece4) -- Size = (4) 

-- ISN: (82361) : L from (0x7fffffffece4) -- of Size = (4) 

-- ISN: (82367) : L from (0x7fffffffece4) -- of Size = (4) 

-- ISN: (82389) : L from (0x7fffffffecd0) -- of Size = (8) 

-- ISN: (82385) : L from (0x6bc3a0) -- of Size = (4) 

-- ISN: (82392) : L from (0x7fffffffecd8) -- of Size = (8) 

-- ISN: (82377) : S -> 0x(25) at (0x7fffffffeccc) -- Size = (4) 

-- ISN: (82379) : L from (0x7fffffffeccc) -- of Size = (4) 

-- ISN: (82395) : L from (0x7fffffffece4) -- of Size = (4) 

-- ISN: (82387) : S -> 0x(0) at (0x6bc424) -- Size = (4) 

-- ISN: (82398) : S -> 0x(26) at (0x7fffffffece4) -- Size = (4) 

-- ISN: (82409) : S -> 0x(61) at (0x7fffffffecd8) -- Size = (8) 

-- ISN: (82412) : S -> 0x(f0) at (0x7fffffffecd0) -- Size = (8) 

-- ISN: (82399) : L from (0x7fffffffece4) -- of Size = (4) 

-- ISN: (82405) : L from (0x7fffffffece4) -- of Size = (4) 

-- ISN: (82423) : L from (0x6bc3a0) -- of Size = (4) 

-- ISN: (82415) : S -> 0x(26) at (0x7fffffffeccc) -- Size = (4) 

-- ISN: (82427) : L from (0x7fffffffecd0) -- of Size = (8) 

-- ISN: (82417) : L from (0x7fffffffeccc) -- of Size = (4) 

-- ISN: (82430) : L from (0x7fffffffecd8) -- of Size = (8) 

-- ISN: (82425) : S -> 0x(0) at (0x6bc424) -- Size = (4) 

-- ISN: (82433) : L from (0x7fffffffece4) -- of Size = (4) 

-- ISN: (82447) : S -> 0x(61) at (0x7fffffffecd8) -- Size = (8) 

-- ISN: (82436) : S -> 0x(27) at (0x7fffffffece4) -- Size = (4) 

-- ISN: (82450) : S -> 0x(f0) at (0x7fffffffecd0) -- Size = (8) 

-- ISN: (82437) : L from (0x7fffffffece4) -- of Size = (4) 

-- ISN: (82443) : L from (0x7fffffffece4) -- of Size = (4) 

-- ISN: (82461) : L from (0x6bc3a0) -- of Size = (4) 

-- ISN: (82453) : S -> 0x(27) at (0x7fffffffeccc) -- Size = (4) 

-- ISN: (82455) : L from (0x7fffffffeccc) -- of Size = (4) 

-- ISN: (82465) : L from (0x7fffffffecd0) -- of Size = (8) 

-- ISN: (82463) : S -> 0x(0) at (0x6bc424) -- Size = (4) 

-- ISN: (82468) : L from (0x7fffffffecd8) -- of Size = (8) 

-- ISN: (82471) : L from (0x7fffffffece4) -- of Size = (4) 

-- ISN: (82485) : S -> 0x(61) at (0x7fffffffecd8) -- Size = (8) 

-- ISN: (82488) : S -> 0x(f0) at (0x7fffffffecd0) -- Size = (8) 

-- ISN: (82474) : S -> 0x(28) at (0x7fffffffece4) -- Size = (4) 

-- ISN: (82475) : L from (0x7fffffffece4) -- of Size = (4) 

-- ISN: (82481) : L from (0x7fffffffece4) -- of Size = (4) 

-- ISN: (82499) : L from (0x6bc3a0) -- of Size = (4) 

-- ISN: (82491) : S -> 0x(28) at (0x7fffffffeccc) -- Size = (4) 

-- ISN: (82493) : L from (0x7fffffffeccc) -- of Size = (4) 

-- ISN: (82501) : S -> 0x(0) at (0x6bc424) -- Size = (4) 

-- ISN: (82503) : L from (0x7fffffffecd0) -- of Size = (8) 

-- ISN: (82506) : L from (0x7fffffffecd8) -- of Size = (8) 

-- ISN: (82509) : L from (0x7fffffffece4) -- of Size = (4) 

-- ISN: (82523) : S -> 0x(61) at (0x7fffffffecd8) -- Size = (8) 

-- ISN: (82526) : S -> 0x(f0) at (0x7fffffffecd0) -- Size = (8) 

-- ISN: (82512) : S -> 0x(29) at (0x7fffffffece4) -- Size = (4) 

-- ISN: (82513) : L from (0x7fffffffece4) -- of Size = (4) 

-- ISN: (82519) : L from (0x7fffffffece4) -- of Size = (4) 

-- ISN: (82541) : L from (0x7fffffffecd0) -- of Size = (8) 

-- ISN: (82537) : L from (0x6bc3a0) -- of Size = (4) 

-- ISN: (82544) : L from (0x7fffffffecd8) -- of Size = (8) 

-- ISN: (82529) : S -> 0x(29) at (0x7fffffffeccc) -- Size = (4) 

-- ISN: (82531) : L from (0x7fffffffeccc) -- of Size = (4) 

-- ISN: (82547) : L from (0x7fffffffece4) -- of Size = (4) 

-- ISN: (82539) : S -> 0x(0) at (0x6bc424) -- Size = (4) 

-- ISN: (82550) : S -> 0x(2a) at (0x7fffffffece4) -- Size = (4) 

-- ISN: (82561) : S -> 0x(61) at (0x7fffffffecd8) -- Size = (8) 

-- ISN: (82564) : S -> 0x(f0) at (0x7fffffffecd0) -- Size = (8) 

-- ISN: (82551) : L from (0x7fffffffece4) -- of Size = (4) 

-- ISN: (82557) : L from (0x7fffffffece4) -- of Size = (4) 

-- ISN: (82575) : L from (0x6bc3a0) -- of Size = (4) 

-- ISN: (82567) : S -> 0x(2a) at (0x7fffffffeccc) -- Size = (4) 

-- ISN: (82579) : L from (0x7fffffffecd0) -- of Size = (8) 

-- ISN: (82569) : L from (0x7fffffffeccc) -- of Size = (4) 

-- ISN: (82582) : L from (0x7fffffffecd8) -- of Size = (8) 

-- ISN: (82577) : S -> 0x(0) at (0x6bc424) -- Size = (4) 

-- ISN: (82585) : L from (0x7fffffffece4) -- of Size = (4) 

-- ISN: (82599) : S -> 0x(61) at (0x7fffffffecd8) -- Size = (8) 

-- ISN: (82588) : S -> 0x(2b) at (0x7fffffffece4) -- Size = (4) 

-- ISN: (82602) : S -> 0x(f0) at (0x7fffffffecd0) -- Size = (8) 

-- ISN: (82589) : L from (0x7fffffffece4) -- of Size = (4) 

-- ISN: (82595) : L from (0x7fffffffece4) -- of Size = (4) 

-- ISN: (82613) : L from (0x6bc3a0) -- of Size = (4) 

-- ISN: (82605) : S -> 0x(2b) at (0x7fffffffeccc) -- Size = (4) 

-- ISN: (82607) : L from (0x7fffffffeccc) -- of Size = (4) 

-- ISN: (82617) : L from (0x7fffffffecd0) -- of Size = (8) 

-- ISN: (82615) : S -> 0x(0) at (0x6bc424) -- Size = (4) 

-- ISN: (82620) : L from (0x7fffffffecd8) -- of Size = (8) 

-- ISN: (82623) : L from (0x7fffffffece4) -- of Size = (4) 

-- ISN: (82637) : S -> 0x(61) at (0x7fffffffecd8) -- Size = (8) 

-- ISN: (82640) : S -> 0x(f0) at (0x7fffffffecd0) -- Size = (8) 

-- ISN: (82626) : S -> 0x(2c) at (0x7fffffffece4) -- Size = (4) 

-- ISN: (82627) : L from (0x7fffffffece4) -- of Size = (4) 

-- ISN: (82633) : L from (0x7fffffffece4) -- of Size = (4) 

-- ISN: (82651) : L from (0x6bc3a0) -- of Size = (4) 

-- ISN: (82643) : S -> 0x(2c) at (0x7fffffffeccc) -- Size = (4) 

-- ISN: (82645) : L from (0x7fffffffeccc) -- of Size = (4) 

-- ISN: (82653) : S -> 0x(0) at (0x6bc424) -- Size = (4) 

-- ISN: (82655) : L from (0x7fffffffecd0) -- of Size = (8) 

-- ISN: (82658) : L from (0x7fffffffecd8) -- of Size = (8) 

-- ISN: (82661) : L from (0x7fffffffece4) -- of Size = (4) 

-- ISN: (82675) : S -> 0x(61) at (0x7fffffffecd8) -- Size = (8) 

-- ISN: (82678) : S -> 0x(f0) at (0x7fffffffecd0) -- Size = (8) 

-- ISN: (82664) : S -> 0x(2d) at (0x7fffffffece4) -- Size = (4) 

-- ISN: (82665) : L from (0x7fffffffece4) -- of Size = (4) 

-- ISN: (82671) : L from (0x7fffffffece4) -- of Size = (4) 

-- ISN: (82693) : L from (0x7fffffffecd0) -- of Size = (8) 

-- ISN: (82689) : L from (0x6bc3a0) -- of Size = (4) 

-- ISN: (82696) : L from (0x7fffffffecd8) -- of Size = (8) 

-- ISN: (82681) : S -> 0x(2d) at (0x7fffffffeccc) -- Size = (4) 

-- ISN: (82683) : L from (0x7fffffffeccc) -- of Size = (4) 

-- ISN: (82699) : L from (0x7fffffffece4) -- of Size = (4) 

-- ISN: (82691) : S -> 0x(0) at (0x6bc424) -- Size = (4) 

-- ISN: (82702) : S -> 0x(2e) at (0x7fffffffece4) -- Size = (4) 

-- ISN: (82713) : S -> 0x(61) at (0x7fffffffecd8) -- Size = (8) 

-- ISN: (82716) : S -> 0x(f0) at (0x7fffffffecd0) -- Size = (8) 

-- ISN: (82703) : L from (0x7fffffffece4) -- of Size = (4) 

-- ISN: (82709) : L from (0x7fffffffece4) -- of Size = (4) 

-- ISN: (82727) : L from (0x6bc3a0) -- of Size = (4) 

-- ISN: (82719) : S -> 0x(2e) at (0x7fffffffeccc) -- Size = (4) 

-- ISN: (82731) : L from (0x7fffffffecd0) -- of Size = (8) 

-- ISN: (82721) : L from (0x7fffffffeccc) -- of Size = (4) 

-- ISN: (82734) : L from (0x7fffffffecd8) -- of Size = (8) 

-- ISN: (82729) : S -> 0x(0) at (0x6bc424) -- Size = (4) 

-- ISN: (82737) : L from (0x7fffffffece4) -- of Size = (4) 

-- ISN: (82751) : S -> 0x(61) at (0x7fffffffecd8) -- Size = (8) 

-- ISN: (82740) : S -> 0x(2f) at (0x7fffffffece4) -- Size = (4) 

-- ISN: (82754) : S -> 0x(f0) at (0x7fffffffecd0) -- Size = (8) 

-- ISN: (82741) : L from (0x7fffffffece4) -- of Size = (4) 

-- ISN: (82747) : L from (0x7fffffffece4) -- of Size = (4) 

-- ISN: (82765) : L from (0x6bc3a0) -- of Size = (4) 

-- ISN: (82757) : S -> 0x(2f) at (0x7fffffffeccc) -- Size = (4) 

-- ISN: (82759) : L from (0x7fffffffeccc) -- of Size = (4) 

-- ISN: (82769) : L from (0x7fffffffecd0) -- of Size = (8) 

-- ISN: (82767) : S -> 0x(0) at (0x6bc424) -- Size = (4) 

-- ISN: (82772) : L from (0x7fffffffecd8) -- of Size = (8) 

-- ISN: (82775) : L from (0x7fffffffece4) -- of Size = (4) 

-- ISN: (82789) : S -> 0x(61) at (0x7fffffffecd8) -- Size = (8) 

-- ISN: (82792) : S -> 0x(f0) at (0x7fffffffecd0) -- Size = (8) 

-- ISN: (82778) : S -> 0x(30) at (0x7fffffffece4) -- Size = (4) 

[...]
-- ISN: (84064) : L from (0x7fffffffecd8) -- of Size = (8) 

-- ISN: (84049) : S -> 0x(51) at (0x7fffffffeccc) -- Size = (4) 

-- ISN: (84051) : L from (0x7fffffffeccc) -- of Size = (4) 

-- ISN: (84067) : L from (0x7fffffffece4) -- of Size = (4) 

-- ISN: (84059) : S -> 0x(0) at (0x6bc424) -- Size = (4) 

-- ISN: (84070) : S -> 0x(52) at (0x7fffffffece4) -- Size = (4) 

-- ISN: (84081) : S -> 0x(61) at (0x7fffffffecd8) -- Size = (8) 

-- ISN: (84084) : S -> 0x(f0) at (0x7fffffffecd0) -- Size = (8) 

-- ISN: (84071) : L from (0x7fffffffece4) -- of Size = (4) 

-- ISN: (84077) : L from (0x7fffffffece4) -- of Size = (4) 

-- ISN: (84095) : L from (0x6bc3a0) -- of Size = (4) 

-- ISN: (84087) : S -> 0x(52) at (0x7fffffffeccc) -- Size = (4) 

-- ISN: (84099) : L from (0x7fffffffecd0) -- of Size = (8) 

-- ISN: (84089) : L from (0x7fffffffeccc) -- of Size = (4) 

-- ISN: (84102) : L from (0x7fffffffecd8) -- of Size = (8) 

-- ISN: (84097) : S -> 0x(0) at (0x6bc424) -- Size = (4) 

-- ISN: (84105) : L from (0x7fffffffece4) -- of Size = (4) 

-- ISN: (84119) : S -> 0x(61) at (0x7fffffffecd8) -- Size = (8) 

-- ISN: (84108) : S -> 0x(53) at (0x7fffffffece4) -- Size = (4) 

-- ISN: (84122) : S -> 0x(f0) at (0x7fffffffecd0) -- Size = (8) 

-- ISN: (84109) : L from (0x7fffffffece4) -- of Size = (4) 

-- ISN: (84115) : L from (0x7fffffffece4) -- of Size = (4) 

-- ISN: (84133) : L from (0x6bc3a0) -- of Size = (4) 

-- ISN: (84125) : S -> 0x(53) at (0x7fffffffeccc) -- Size = (4) 

-- ISN: (84127) : L from (0x7fffffffeccc) -- of Size = (4) 

-- ISN: (84137) : L from (0x7fffffffecd0) -- of Size = (8) 

-- ISN: (84135) : S -> 0x(0) at (0x6bc424) -- Size = (4) 

-- ISN: (84140) : L from (0x7fffffffecd8) -- of Size = (8) 

-- ISN: (84143) : L from (0x7fffffffece4) -- of Size = (4) 

-- ISN: (84157) : S -> 0x(61) at (0x7fffffffecd8) -- Size = (8) 

-- ISN: (84160) : S -> 0x(f0) at (0x7fffffffecd0) -- Size = (8) 

-- ISN: (84146) : S -> 0x(54) at (0x7fffffffece4) -- Size = (4) 

-- ISN: (84147) : L from (0x7fffffffece4) -- of Size = (4) 

-- ISN: (84153) : L from (0x7fffffffece4) -- of Size = (4) 

-- ISN: (84171) : L from (0x6bc3a0) -- of Size = (4) 

-- ISN: (84163) : S -> 0x(54) at (0x7fffffffeccc) -- Size = (4) 

-- ISN: (84165) : L from (0x7fffffffeccc) -- of Size = (4) 

-- ISN: (84173) : S -> 0x(0) at (0x6bc424) -- Size = (4) 

-- ISN: (84175) : L from (0x7fffffffecd0) -- of Size = (8) 

-- ISN: (84178) : L from (0x7fffffffecd8) -- of Size = (8) 

-- ISN: (84181) : L from (0x7fffffffece4) -- of Size = (4) 

-- ISN: (84195) : S -> 0x(61) at (0x7fffffffecd8) -- Size = (8) 

-- ISN: (84198) : S -> 0x(f0) at (0x7fffffffecd0) -- Size = (8) 

-- ISN: (84184) : S -> 0x(55) at (0x7fffffffece4) -- Size = (4) 

-- ISN: (84185) : L from (0x7fffffffece4) -- of Size = (4) 

-- ISN: (84191) : L from (0x7fffffffece4) -- of Size = (4) 

-- ISN: (84213) : L from (0x7fffffffecd0) -- of Size = (8) 

-- ISN: (84209) : L from (0x6bc3a0) -- of Size = (4) 

-- ISN: (84216) : L from (0x7fffffffecd8) -- of Size = (8) 

-- ISN: (84201) : S -> 0x(55) at (0x7fffffffeccc) -- Size = (4) 

-- ISN: (84203) : L from (0x7fffffffeccc) -- of Size = (4) 

-- ISN: (84219) : L from (0x7fffffffece4) -- of Size = (4) 

-- ISN: (84211) : S -> 0x(0) at (0x6bc424) -- Size = (4) 

-- ISN: (84222) : S -> 0x(56) at (0x7fffffffece4) -- Size = (4) 

-- ISN: (84233) : S -> 0x(61) at (0x7fffffffecd8) -- Size = (8) 

-- ISN: (84236) : S -> 0x(f0) at (0x7fffffffecd0) -- Size = (8) 

-- ISN: (84223) : L from (0x7fffffffece4) -- of Size = (4) 

-- ISN: (84229) : L from (0x7fffffffece4) -- of Size = (4) 

-- ISN: (84247) : L from (0x6bc3a0) -- of Size = (4) 

-- ISN: (84239) : S -> 0x(56) at (0x7fffffffeccc) -- Size = (4) 

-- ISN: (84251) : L from (0x7fffffffecd0) -- of Size = (8) 

-- ISN: (84241) : L from (0x7fffffffeccc) -- of Size = (4) 

-- ISN: (84254) : L from (0x7fffffffecd8) -- of Size = (8) 

-- ISN: (84249) : S -> 0x(0) at (0x6bc424) -- Size = (4) 

-- ISN: (84257) : L from (0x7fffffffece4) -- of Size = (4) 

-- ISN: (84271) : S -> 0x(61) at (0x7fffffffecd8) -- Size = (8) 

-- ISN: (84260) : S -> 0x(57) at (0x7fffffffece4) -- Size = (4) 

-- ISN: (84274) : S -> 0x(f0) at (0x7fffffffecd0) -- Size = (8) 

-- ISN: (84261) : L from (0x7fffffffece4) -- of Size = (4) 

-- ISN: (84267) : L from (0x7fffffffece4) -- of Size = (4) 

-- ISN: (84285) : L from (0x6bc3a0) -- of Size = (4) 

-- ISN: (84277) : S -> 0x(57) at (0x7fffffffeccc) -- Size = (4) 

-- ISN: (84279) : L from (0x7fffffffeccc) -- of Size = (4) 

-- ISN: (84289) : L from (0x7fffffffecd0) -- of Size = (8) 

-- ISN: (84287) : S -> 0x(0) at (0x6bc424) -- Size = (4) 

-- ISN: (84292) : L from (0x7fffffffecd8) -- of Size = (8) 

-- ISN: (84295) : L from (0x7fffffffece4) -- of Size = (4) 

-- ISN: (84309) : S -> 0x(61) at (0x7fffffffecd8) -- Size = (8) 

-- ISN: (84312) : S -> 0x(f0) at (0x7fffffffecd0) -- Size = (8) 

-- ISN: (84298) : S -> 0x(58) at (0x7fffffffece4) -- Size = (4) 

-- ISN: (84299) : L from (0x7fffffffece4) -- of Size = (4) 

-- ISN: (84305) : L from (0x7fffffffece4) -- of Size = (4) 

-- ISN: (84323) : L from (0x6bc3a0) -- of Size = (4) 

-- ISN: (84315) : S -> 0x(58) at (0x7fffffffeccc) -- Size = (4) 

-- ISN: (84317) : L from (0x7fffffffeccc) -- of Size = (4) 

-- ISN: (84325) : S -> 0x(0) at (0x6bc424) -- Size = (4) 

-- ISN: (84327) : L from (0x7fffffffecd0) -- of Size = (8) 

-- ISN: (84330) : L from (0x7fffffffecd8) -- of Size = (8) 

-- ISN: (84333) : L from (0x7fffffffece4) -- of Size = (4) 

-- ISN: (84347) : S -> 0x(61) at (0x7fffffffecd8) -- Size = (8) 

-- ISN: (84350) : S -> 0x(f0) at (0x7fffffffecd0) -- Size = (8) 

-- ISN: (84336) : S -> 0x(59) at (0x7fffffffece4) -- Size = (4) 

-- ISN: (84337) : L from (0x7fffffffece4) -- of Size = (4) 

-- ISN: (84343) : L from (0x7fffffffece4) -- of Size = (4) 

-- ISN: (84365) : L from (0x7fffffffecd0) -- of Size = (8) 

-- ISN: (84361) : L from (0x6bc3a0) -- of Size = (4) 

-- ISN: (84368) : L from (0x7fffffffecd8) -- of Size = (8) 

-- ISN: (84353) : S -> 0x(59) at (0x7fffffffeccc) -- Size = (4) 

-- ISN: (84355) : L from (0x7fffffffeccc) -- of Size = (4) 

-- ISN: (84371) : L from (0x7fffffffece4) -- of Size = (4) 

-- ISN: (84363) : S -> 0x(0) at (0x6bc424) -- Size = (4) 

-- ISN: (84374) : S -> 0x(5a) at (0x7fffffffece4) -- Size = (4) 

-- ISN: (84385) : S -> 0x(61) at (0x7fffffffecd8) -- Size = (8) 

-- ISN: (84388) : S -> 0x(f0) at (0x7fffffffecd0) -- Size = (8) 

-- ISN: (84375) : L from (0x7fffffffece4) -- of Size = (4) 

-- ISN: (84381) : L from (0x7fffffffece4) -- of Size = (4) 

-- ISN: (84399) : L from (0x6bc3a0) -- of Size = (4) 

-- ISN: (84391) : S -> 0x(5a) at (0x7fffffffeccc) -- Size = (4) 

-- ISN: (84403) : L from (0x7fffffffecd0) -- of Size = (8) 

-- ISN: (84393) : L from (0x7fffffffeccc) -- of Size = (4) 

-- ISN: (84406) : L from (0x7fffffffecd8) -- of Size = (8) 

-- ISN: (84401) : S -> 0x(0) at (0x6bc424) -- Size = (4) 

-- ISN: (84409) : L from (0x7fffffffece4) -- of Size = (4) 

-- ISN: (84423) : S -> 0x(61) at (0x7fffffffecd8) -- Size = (8) 

-- ISN: (84412) : S -> 0x(5b) at (0x7fffffffece4) -- Size = (4) 

-- ISN: (84426) : S -> 0x(f0) at (0x7fffffffecd0) -- Size = (8) 

-- ISN: (84413) : L from (0x7fffffffece4) -- of Size = (4) 

-- ISN: (84419) : L from (0x7fffffffece4) -- of Size = (4) 

-- ISN: (84437) : L from (0x6bc3a0) -- of Size = (4) 

-- ISN: (84429) : S -> 0x(5b) at (0x7fffffffeccc) -- Size = (4) 

-- ISN: (84431) : L from (0x7fffffffeccc) -- of Size = (4) 

-- ISN: (84441) : L from (0x7fffffffecd0) -- of Size = (8) 

-- ISN: (84439) : S -> 0x(0) at (0x6bc424) -- Size = (4) 

-- ISN: (84444) : L from (0x7fffffffecd8) -- of Size = (8) 

-- ISN: (84447) : L from (0x7fffffffece4) -- of Size = (4) 

-- ISN: (84461) : S -> 0x(61) at (0x7fffffffecd8) -- Size = (8) 

-- ISN: (84464) : S -> 0x(f0) at (0x7fffffffecd0) -- Size = (8) 

-- ISN: (84450) : S -> 0x(5c) at (0x7fffffffece4) -- Size = (4) 

-- ISN: (84451) : L from (0x7fffffffece4) -- of Size = (4) 

-- ISN: (84457) : L from (0x7fffffffece4) -- of Size = (4) 

-- ISN: (84475) : L from (0x6bc3a0) -- of Size = (4) 

-- ISN: (84467) : S -> 0x(5c) at (0x7fffffffeccc) -- Size = (4) 

-- ISN: (84469) : L from (0x7fffffffeccc) -- of Size = (4) 

-- ISN: (84477) : S -> 0x(0) at (0x6bc424) -- Size = (4) 

-- ISN: (84479) : L from (0x7fffffffecd0) -- of Size = (8) 

-- ISN: (84482) : L from (0x7fffffffecd8) -- of Size = (8) 

-- ISN: (84485) : L from (0x7fffffffece4) -- of Size = (4) 

-- ISN: (84499) : S -> 0x(61) at (0x7fffffffecd8) -- Size = (8) 

-- ISN: (84502) : S -> 0x(f0) at (0x7fffffffecd0) -- Size = (8) 

-- ISN: (84488) : S -> 0x(5d) at (0x7fffffffece4) -- Size = (4) 

-- ISN: (84489) : L from (0x7fffffffece4) -- of Size = (4) 

-- ISN: (84495) : L from (0x7fffffffece4) -- of Size = (4) 

-- ISN: (84517) : L from (0x7fffffffecd0) -- of Size = (8) 

-- ISN: (84513) : L from (0x6bc3a0) -- of Size = (4) 

-- ISN: (84520) : L from (0x7fffffffecd8) -- of Size = (8) 

-- ISN: (84505) : S -> 0x(5d) at (0x7fffffffeccc) -- Size = (4) 

-- ISN: (84507) : L from (0x7fffffffeccc) -- of Size = (4) 

-- ISN: (84523) : L from (0x7fffffffece4) -- of Size = (4) 

-- ISN: (84515) : S -> 0x(0) at (0x6bc424) -- Size = (4) 

-- ISN: (84526) : S -> 0x(5e) at (0x7fffffffece4) -- Size = (4) 

-- ISN: (84537) : S -> 0x(61) at (0x7fffffffecd8) -- Size = (8) 

-- ISN: (84540) : S -> 0x(f0) at (0x7fffffffecd0) -- Size = (8) 

-- ISN: (84527) : L from (0x7fffffffece4) -- of Size = (4) 

-- ISN: (84533) : L from (0x7fffffffece4) -- of Size = (4) 

-- ISN: (84551) : L from (0x6bc3a0) -- of Size = (4) 

-- ISN: (84543) : S -> 0x(5e) at (0x7fffffffeccc) -- Size = (4) 

-- ISN: (84555) : L from (0x7fffffffecd0) -- of Size = (8) 

-- ISN: (84545) : L from (0x7fffffffeccc) -- of Size = (4) 

-- ISN: (84558) : L from (0x7fffffffecd8) -- of Size = (8) 

-- ISN: (84553) : S -> 0x(0) at (0x6bc424) -- Size = (4) 

-- ISN: (84561) : L from (0x7fffffffece4) -- of Size = (4) 

-- ISN: (84575) : S -> 0x(61) at (0x7fffffffecd8) -- Size = (8) 

-- ISN: (84564) : S -> 0x(5f) at (0x7fffffffece4) -- Size = (4) 

-- ISN: (84578) : S -> 0x(f0) at (0x7fffffffecd0) -- Size = (8) 

-- ISN: (84565) : L from (0x7fffffffece4) -- of Size = (4) 

-- ISN: (84571) : L from (0x7fffffffece4) -- of Size = (4) 

-- ISN: (84589) : L from (0x6bc3a0) -- of Size = (4) 

-- ISN: (84581) : S -> 0x(5f) at (0x7fffffffeccc) -- Size = (4) 

-- ISN: (84583) : L from (0x7fffffffeccc) -- of Size = (4) 

-- ISN: (84593) : L from (0x7fffffffecd0) -- of Size = (8) 

-- ISN: (84591) : S -> 0x(0) at (0x6bc424) -- Size = (4) 

-- ISN: (84596) : L from (0x7fffffffecd8) -- of Size = (8) 

-- ISN: (84599) : L from (0x7fffffffece4) -- of Size = (4) 

-- ISN: (84613) : S -> 0x(61) at (0x7fffffffecd8) -- Size = (8) 

-- ISN: (84616) : S -> 0x(f0) at (0x7fffffffecd0) -- Size = (8) 

-- ISN: (84602) : S -> 0x(60) at (0x7fffffffece4) -- Size = (4) 

-- ISN: (84603) : L from (0x7fffffffece4) -- of Size = (4) 

-- ISN: (84609) : L from (0x7fffffffece4) -- of Size = (4) 

-- ISN: (84627) : L from (0x6bc3a0) -- of Size = (4) 

-- ISN: (84619) : S -> 0x(60) at (0x7fffffffeccc) -- Size = (4) 

-- ISN: (84621) : L from (0x7fffffffeccc) -- of Size = (4) 

-- ISN: (84629) : S -> 0x(0) at (0x6bc424) -- Size = (4) 

-- ISN: (84631) : L from (0x7fffffffecd0) -- of Size = (8) 

-- ISN: (84634) : L from (0x7fffffffecd8) -- of Size = (8) 

-- ISN: (84637) : L from (0x7fffffffece4) -- of Size = (4) 

-- ISN: (84651) : S -> 0x(61) at (0x7fffffffecd8) -- Size = (8) 

-- ISN: (84654) : S -> 0x(f0) at (0x7fffffffecd0) -- Size = (8) 

-- ISN: (84640) : S -> 0x(61) at (0x7fffffffece4) -- Size = (4) 

-- ISN: (84641) : L from (0x7fffffffece4) -- of Size = (4) 

-- ISN: (84647) : L from (0x7fffffffece4) -- of Size = (4) 

-- ISN: (84669) : L from (0x7fffffffecd0) -- of Size = (8) 

-- ISN: (84665) : L from (0x6bc3a0) -- of Size = (4) 

-- ISN: (84672) : L from (0x7fffffffecd8) -- of Size = (8) 

-- ISN: (84657) : S -> 0x(61) at (0x7fffffffeccc) -- Size = (4) 

-- ISN: (84659) : L from (0x7fffffffeccc) -- of Size = (4) 

-- ISN: (84675) : L from (0x7fffffffece4) -- of Size = (4) 

-- ISN: (84667) : S -> 0x(0) at (0x6bc424) -- Size = (4) 

-- ISN: (84678) : S -> 0x(62) at (0x7fffffffece4) -- Size = (4) 

-- ISN: (84689) : S -> 0x(61) at (0x7fffffffecd8) -- Size = (8) 

-- ISN: (84692) : S -> 0x(f0) at (0x7fffffffecd0) -- Size = (8) 

-- ISN: (84679) : L from (0x7fffffffece4) -- of Size = (4) 

-- ISN: (84685) : L from (0x7fffffffece4) -- of Size = (4) 

-- ISN: (84703) : L from (0x6bc3a0) -- of Size = (4) 

-- ISN: (84695) : S -> 0x(62) at (0x7fffffffeccc) -- Size = (4) 

-- ISN: (84707) : L from (0x7fffffffecd0) -- of Size = (8) 

-- ISN: (84697) : L from (0x7fffffffeccc) -- of Size = (4) 

-- ISN: (84710) : L from (0x7fffffffecd8) -- of Size = (8) 

-- ISN: (84705) : S -> 0x(0) at (0x6bc424) -- Size = (4) 

-- ISN: (84713) : L from (0x7fffffffece4) -- of Size = (4) 

-- ISN: (84727) : S -> 0x(61) at (0x7fffffffecd8) -- Size = (8) 

-- ISN: (84716) : S -> 0x(63) at (0x7fffffffece4) -- Size = (4) 

-- ISN: (84730) : S -> 0x(f0) at (0x7fffffffecd0) -- Size = (8) 

-- ISN: (84717) : L from (0x7fffffffece4) -- of Size = (4) 

-- ISN: (84723) : L from (0x7fffffffece4) -- of Size = (4) 

-- ISN: (84741) : L from (0x6bc3a0) -- of Size = (4) 

-- ISN: (84733) : S -> 0x(63) at (0x7fffffffeccc) -- Size = (4) 

-- ISN: (84735) : L from (0x7fffffffeccc) -- of Size = (4) 

-- ISN: (84745) : L from (0x7fffffffecd0) -- of Size = (8) 

-- ISN: (84743) : S -> 0x(0) at (0x6bc424) -- Size = (4) 

-- ISN: (84748) : L from (0x7fffffffecd8) -- of Size = (8) 

-- ISN: (84751) : L from (0x7fffffffece4) -- of Size = (4) 

-- ISN: (84765) : S -> 0x(61) at (0x7fffffffecd8) -- Size = (8) 

-- ISN: (84768) : S -> 0x(f0) at (0x7fffffffecd0) -- Size = (8) 

-- ISN: (84754) : S -> 0x(64) at (0x7fffffffece4) -- Size = (4) 				Store i == 100		Speculation says take branch (wrong prediction) 

-- ISN: (84755) : L from (0x7fffffffece4) -- of Size = (4) 

- - - Instructions squashed from here. - - - (84760)

-- ISN: (84761) : L from (0x7fffffffece4) -- of Size = (4) 

-- ISN: (84779) : L from (0x6bc3a0) -- of Size = (4) 							Load x == 0

-- ISN: (84771) : S -> 0x(64) at (0x7fffffffeccc) -- Size = (4) 

-- ISN: (84773) : L from (0x7fffffffeccc) -- of Size = (4) 

-- ISN: (84781) : S -> 0x(0) at (0x6bc424) -- Size = (4) 					Store y == 0

-- ISN: (84783) : L from (0x7fffffffecd0) -- of Size = (8) 

-- Sqsh -> ISN (84760)																			Squash inst					

-- ISN: (84847) : S -> 0x(7c) at (0x7fffffffecd8) -- Size = (8) 

-- ISN: (84855) : L from (0x7fffffffece4) -- of Size = (4) 

-- Sqsh -> ISN (84849)

-- ISN: (84916) : S -> 0x(f0) at (0x7fffffffecd0) -- Size = (8) 

-- ISN: (84919) : S -> 0x(69) at (0x7fffffffeccc) -- Size = (4) 				Store (105) somewhere

-- ISN: (84927) : L from (0x7fffffffecd0) -- of Size = (8) 

-- ISN: (84921) : L from (0x7fffffffeccc) -- of Size = (4) 

-- ISN: (84930) : L from (0x7fffffffecd8) -- of Size = (8) 

-- ISN: (84938) : L from (0x7fffffffece4) -- of Size = (4) 

-- ISN: (84934) : S -> 0x(0) at (0x7fffffffece4) -- Size = (4) 

-- ISN: (84942) : L from (0x7fffffffece4) -- of Size = (4) 

-- ISN: (84955) : L from (0x7fffffffece8) -- of Size = (8) 

-- ISN: (84956) : L from (0x6bd8a8) -- of Size = (8) 

-- Sqsh -> ISN (84937)

-- ISN: (84996) : L from (0x7fffffffece4) -- of Size = (4) 

-- ISN: (85009) : L from (0x7fffffffece8) -- of Size = (8) 

-- ISN: (85010) : L from (0x6bd8a8) -- of Size = (8) 

-- ISN: (85005) : S -> 0x(a0) at (0x7fffffffecd8) -- Size = (8) 

-- ISN: (85017) : S -> 0x(b9) at (0x7fffffffecd0) -- Size = (8) 

-- Sqsh -> ISN (85001)

-- ISN: (85060) : L from (0x7fffffffece4) -- of Size = (4) 

-- ISN: (85064) : L from (0x7fffffffece4) -- of Size = (4) 

-- ISN: (85063) : S -> 0x(1) at (0x7fffffffece4) -- Size = (4) 

-- ISN: (85073) : S -> 0x(a0) at (0x7fffffffecd8) -- Size = (8) 

-- ISN: (85077) : L from (0x7fffffffece8) -- of Size = (8) 

-- ISN: (85078) : L from (0x6bd8a8) -- of Size = (8) 

-- Sqsh -> ISN (85063)

-- ISN: (85128) : L from (0x7fffffffece4) -- of Size = (4) 

-- ISN: (85141) : L from (0x7fffffffece8) -- of Size = (8) 

-- ISN: (85142) : L from (0x6bd8a8) -- of Size = (8) 

-- ISN: (85137) : S -> 0x(a0) at (0x7fffffffecd8) -- Size = (8) 

-- ISN: (85149) : S -> 0x(b9) at (0x7fffffffecd0) -- Size = (8) 

-- Sqsh -> ISN (85139)

-- Sqsh -> ISN (85133)

-- ISN: (85192) : L from (0x7fffffffece4) -- of Size = (4) 

-- ISN: (85205) : S -> 0x(a0) at (0x7fffffffecd8) -- Size = (8) 

-- ISN: (85209) : L from (0x7fffffffece8) -- of Size = (8) 

-- ISN: (85210) : L from (0x6bd8a8) -- of Size = (8) 

-- ISN: (85195) : S -> 0x(2) at (0x7fffffffece4) -- Size = (4) 

-- Sqsh -> ISN (85207)

-- ISN: (85196) : L from (0x7fffffffece4) -- of Size = (4) 

-- Sqsh -> ISN (85201)

-- ISN: (85261) : L from (0x7fffffffece4) -- of Size = (4) 

-- ISN: (85274) : S -> 0x(a0) at (0x7fffffffecd8) -- Size = (8) 

-- ISN: (85279) : L from (0x6bd8a8) -- of Size = (8) 

-- ISN: (85264) : S -> 0x(3) at (0x7fffffffece4) -- Size = (4) 

-- Sqsh -> ISN (85276)

-- ISN: (85265) : L from (0x7fffffffece4) -- of Size = (4) 

-- Sqsh -> ISN (85270)

-- ISN: (85330) : L from (0x7fffffffece4) -- of Size = (4) 

-- ISN: (85343) : S -> 0x(a0) at (0x7fffffffecd8) -- Size = (8) 

-- ISN: (85347) : L from (0x7fffffffecd8) -- of Size = (8) 

-- ISN: (85333) : S -> 0x(4) at (0x7fffffffece4) -- Size = (4) 

-- ISN: (85334) : L from (0x7fffffffece4) -- of Size = (4) 

-- ISN: (85351) : L from (0x7fffffffece8) -- of Size = (8) 

-- ISN: (85352) : L from (0x6bd8a8) -- of Size = (8) 

-- ISN: (85359) : S -> 0x(b9) at (0x7fffffffecd8) -- Size = (8) 

-- ISN: (85363) : L from (0x7fffffffecf0) -- of Size = (8) 

-- Sqsh -> ISN (85361)

-- Sqsh -> ISN (85339)

-- ISN: (85376) : L from (0x7fffffffece4) -- of Size = (4) 

-- ISN: (85386) : L from (0x7fffffffece4) -- of Size = (4) 

-- ISN: (85396) : L from (0x7fffffffece4) -- of Size = (4) 

-- ISN: (85379) : S -> 0x(5) at (0x7fffffffece4) -- Size = (4) 

-- ISN: (85406) : L from (0x7fffffffece4) -- of Size = (4) 

-- ISN: (85380) : L from (0x7fffffffece4) -- of Size = (4) 

-- Sqsh -> ISN (85385)

-- ISN: (85446) : L from (0x7fffffffece4) -- of Size = (4) 

-- ISN: (85450) : L from (0x7fffffffece4) -- of Size = (4) 

-- ISN: (85460) : L from (0x7fffffffece4) -- of Size = (4) 

-- ISN: (85449) : S -> 0x(6) at (0x7fffffffece4) -- Size = (4) 

-- ISN: (85456) : L from (0x7fffffffece4) -- of Size = (4) 

-- ISN: (85470) : L from (0x7fffffffece4) -- of Size = (4) 

-- Sqsh -> ISN (85449)

-- ISN: (85516) : L from (0x7fffffffece4) -- of Size = (4) 

-- ISN: (85522) : L from (0x7fffffffece4) -- of Size = (4) 

-- ISN: (85525) : S -> 0x(7) at (0x7fffffffece4) -- Size = (4) 

-- ISN: (85526) : L from (0x7fffffffece4) -- of Size = (4) 

-- ISN: (85532) : L from (0x7fffffffece4) -- of Size = (4) 

-- ISN: (85535) : S -> 0x(8) at (0x7fffffffece4) -- Size = (4) 

-- ISN: (85536) : L from (0x7fffffffece4) -- of Size = (4) 

-- ISN: (85542) : L from (0x7fffffffece4) -- of Size = (4) 

-- ISN: (85545) : S -> 0x(9) at (0x7fffffffece4) -- Size = (4) 

-- ISN: (85546) : L from (0x7fffffffece4) -- of Size = (4) 

-- ISN: (85552) : L from (0x7fffffffece4) -- of Size = (4) 

-- ISN: (85555) : S -> 0x(a) at (0x7fffffffece4) -- Size = (4) 

-- ISN: (85556) : L from (0x7fffffffece4) -- of Size = (4) 

-- ISN: (85562) : L from (0x7fffffffece4) -- of Size = (4) 

-- ISN: (85565) : S -> 0x(b) at (0x7fffffffece4) -- Size = (4) 

-- ISN: (85566) : L from (0x7fffffffece4) -- of Size = (4) 

-- ISN: (85572) : L from (0x7fffffffece4) -- of Size = (4) 

-- Sqsh -> ISN (85561)

-- ISN: (85679) : L from (0x7fffffffece8) -- of Size = (8) 

-- ISN: (85675) : S -> 0x(a0) at (0x7fffffffecd8) -- Size = (8) 

-- ISN: (85680) : L from (0x6bd8a8) -- of Size = (8) 

-- Sqsh -> ISN (85677)

HERE 2 : enable_memreq_tracing = 0
Exiting @ tick 36633000 because exiting with last active thread context
