gem5 Simulator System.  http://gem5.org
gem5 is copyrighted software; use the --copyright option for details.

gem5 compiled Feb 28 2020 17:14:42
gem5 started Feb 28 2020 23:16:29
gem5 executing on tarun-s, pid 19619
command line: build/X86/gem5.opt configs/example/se.py --cmd=/home/tarun/Desktop/gem5/tests/my_progs/spectre_test_2 --cpu-type=DerivO3CPU --caches

Global frequency set at 1000000000000 ticks per second

NOTES:
array1[105] -> 0x6bc5e4 		is being accessed at the last.   		(line - 4392)
array2[0] -> 0xc3c0 				is not being accessed at the last
y -> 0xc424 							is not being stored to at the last

**** REAL SIMULATION ****

Address of i = 0x7fffffffece0 

Address of j = 0x7fffffffece4 

Address of x = 0x6bc3a0 

Address of y = 0x6bc424 

Address of array1 = 0x6bc440 

Address of array2 = 0x6bc3c0 

Address of array3 = 0x6bc5e0 
HERE 1 : enable_memreq_tracing = 1
-- ISN: (82695) : L from (0x7fffffffece0) -- of Size = (4) 

-- ISN: (82696) : L from (0x7fffffffece0) -- of Size = (4) 

-- ISN: (82691) : S -> 0x(0) at (0x7fffffffece0) -- Size = (4) 

-- ISN: (82702) : L from (0x7fffffffece0) -- of Size = (4) 

-- Sqsh -> ISN (82694)

-- ISN: (82745) : L from (0x7fffffffece0) -- of Size = (4) 

-- ISN: (82752) : S -> 0x(0) at (0x7fffffffece4) -- Size = (4) 

-- ISN: (82756) : L from (0x7fffffffece4) -- of Size = (4) 

-- ISN: (82760) : S -> 0x(9b) at (0x7fffffffecd8) -- Size = (8) 

-- ISN: (82763) : L from (0x7fffffffece4) -- of Size = (4) 

-- ISN: (82767) : L from (0x7fffffffece4) -- of Size = (4) 

-- Sqsh -> ISN (82755)

-- Sqsh -> ISN (82750)

-- ISN: (82784) : L from (0x7fffffffece0) -- of Size = (4) 

-- ISN: (82785) : L from (0x7fffffffece0) -- of Size = (4) 

-- ISN: (82791) : L from (0x7fffffffece0) -- of Size = (4) 

-- ISN: (82795) : L from (0x7fffffffece0) -- of Size = (4) 

-- ISN: (82806) : L from (0x7fffffffece4) -- of Size = (4) 

-- ISN: (82802) : S -> 0x(0) at (0x7fffffffece4) -- Size = (4) 

-- ISN: (82813) : L from (0x7fffffffece4) -- of Size = (4) 

-- ISN: (82790) : S -> 0x(0) at (0x6bc440) -- Size = (4) 

-- ISN: (82794) : S -> 0x(1) at (0x7fffffffece0) -- Size = (4) 

-- ISN: (82810) : S -> 0x(9b) at (0x7fffffffecd8) -- Size = (8) 

-- ISN: (82817) : L from (0x7fffffffece4) -- of Size = (4) 

-- Sqsh -> ISN (82805)

-- Sqsh -> ISN (82794)

-- ISN: (82834) : L from (0x7fffffffece0) -- of Size = (4) 

-- ISN: (82841) : S -> 0x(0) at (0x7fffffffece4) -- Size = (4) 

-- ISN: (82845) : L from (0x7fffffffece4) -- of Size = (4) 

-- ISN: (82854) : S -> 0x(b6) at (0x7fffffffecd8) -- Size = (8) 

-- Sqsh -> ISN (82839)

-- ISN: (82862) : L from (0x7fffffffece0) -- of Size = (4) 

-- ISN: (82863) : L from (0x7fffffffece0) -- of Size = (4) 

-- ISN: (82869) : L from (0x7fffffffece0) -- of Size = (4) 

-- ISN: (82868) : S -> 0x(1) at (0x6bc444) -- Size = (4) 

-- ISN: (82872) : S -> 0x(2) at (0x7fffffffece0) -- Size = (4) 

-- ISN: (82880) : S -> 0x(0) at (0x7fffffffece4) -- Size = (4) 

-- ISN: (82891) : L from (0x7fffffffece4) -- of Size = (4) 

-- ISN: (82873) : L from (0x7fffffffece0) -- of Size = (4) 

-- ISN: (82884) : L from (0x7fffffffece4) -- of Size = (4) 

-- ISN: (82888) : S -> 0x(9b) at (0x7fffffffecd8) -- Size = (8) 

-- ISN: (82895) : L from (0x7fffffffece4) -- of Size = (4) 

-- Sqsh -> ISN (82883)

-- Sqsh -> ISN (82878)

-- ISN: (82920) : L from (0x7fffffffece0) -- of Size = (4) 

-- ISN: (82921) : L from (0x7fffffffece0) -- of Size = (4) 

-- ISN: (82927) : L from (0x7fffffffece0) -- of Size = (4) 

-- ISN: (82926) : S -> 0x(2) at (0x6bc448) -- Size = (4) 

-- ISN: (82930) : S -> 0x(3) at (0x7fffffffece0) -- Size = (4) 

-- ISN: (82938) : S -> 0x(0) at (0x7fffffffece4) -- Size = (4) 

-- ISN: (82949) : L from (0x7fffffffece4) -- of Size = (4) 

-- ISN: (82931) : L from (0x7fffffffece0) -- of Size = (4) 

-- ISN: (82942) : L from (0x7fffffffece4) -- of Size = (4) 

-- ISN: (82946) : S -> 0x(9b) at (0x7fffffffecd8) -- Size = (8) 

-- ISN: (82953) : L from (0x7fffffffece4) -- of Size = (4) 

-- Sqsh -> ISN (82941)

-- Sqsh -> ISN (82936)

-- ISN: (82978) : L from (0x7fffffffece0) -- of Size = (4) 

-- ISN: (82979) : L from (0x7fffffffece0) -- of Size = (4) 

-- ISN: (82985) : L from (0x7fffffffece0) -- of Size = (4) 

-- ISN: (83000) : L from (0x7fffffffece4) -- of Size = (4) 

-- ISN: (82984) : S -> 0x(3) at (0x6bc44c) -- Size = (4) 

-- ISN: (82988) : S -> 0x(4) at (0x7fffffffece0) -- Size = (4) 

-- ISN: (82996) : S -> 0x(0) at (0x7fffffffece4) -- Size = (4) 

-- ISN: (82989) : L from (0x7fffffffece0) -- of Size = (4) 

-- Sqsh -> ISN (82999)

-- Sqsh -> ISN (82994)

-- ISN: (83033) : L from (0x7fffffffece0) -- of Size = (4) 

-- ISN: (83034) : L from (0x7fffffffece0) -- of Size = (4) 

-- ISN: (83040) : L from (0x7fffffffece0) -- of Size = (4) 

-- ISN: (83039) : S -> 0x(4) at (0x6bc450) -- Size = (4) 

-- ISN: (83043) : S -> 0x(5) at (0x7fffffffece0) -- Size = (4) 

-- ISN: (83050) : L from (0x7fffffffece0) -- of Size = (4) 

-- ISN: (83051) : L from (0x7fffffffece0) -- of Size = (4) 

-- ISN: (83044) : L from (0x7fffffffece0) -- of Size = (4) 

-- ISN: (83057) : L from (0x7fffffffece0) -- of Size = (4) 

-- ISN: (83056) : S -> 0x(5) at (0x6bc454) -- Size = (4) 

-- ISN: (83060) : S -> 0x(6) at (0x7fffffffece0) -- Size = (4) 

-- ISN: (83061) : L from (0x7fffffffece0) -- of Size = (4) 

-- ISN: (83067) : L from (0x7fffffffece0) -- of Size = (4) 

-- ISN: (83068) : L from (0x7fffffffece0) -- of Size = (4) 

-- ISN: (83074) : L from (0x7fffffffece0) -- of Size = (4) 

-- ISN: (83077) : S -> 0x(7) at (0x7fffffffece0) -- Size = (4) 

-- ISN: (83073) : S -> 0x(6) at (0x6bc458) -- Size = (4) 

-- ISN: (83078) : L from (0x7fffffffece0) -- of Size = (4) 

-- ISN: (83084) : L from (0x7fffffffece0) -- of Size = (4) 

-- ISN: (83085) : L from (0x7fffffffece0) -- of Size = (4) 

-- ISN: (83091) : L from (0x7fffffffece0) -- of Size = (4) 

-- ISN: (83094) : S -> 0x(8) at (0x7fffffffece0) -- Size = (4) 

-- ISN: (83090) : S -> 0x(7) at (0x6bc45c) -- Size = (4) 

-- ISN: (83095) : L from (0x7fffffffece0) -- of Size = (4) 

-- ISN: (83101) : L from (0x7fffffffece0) -- of Size = (4) 

-- ISN: (83102) : L from (0x7fffffffece0) -- of Size = (4) 

-- ISN: (83108) : L from (0x7fffffffece0) -- of Size = (4) 

-- ISN: (83111) : S -> 0x(9) at (0x7fffffffece0) -- Size = (4) 

-- ISN: (83107) : S -> 0x(8) at (0x6bc460) -- Size = (4) 

-- ISN: (83112) : L from (0x7fffffffece0) -- of Size = (4) 

-- ISN: (83118) : L from (0x7fffffffece0) -- of Size = (4) 

-- ISN: (83119) : L from (0x7fffffffece0) -- of Size = (4) 

-- ISN: (83125) : L from (0x7fffffffece0) -- of Size = (4) 

-- ISN: (83128) : S -> 0x(a) at (0x7fffffffece0) -- Size = (4) 

-- ISN: (83124) : S -> 0x(9) at (0x6bc464) -- Size = (4) 

-- ISN: (83129) : L from (0x7fffffffece0) -- of Size = (4) 

-- ISN: (83135) : L from (0x7fffffffece0) -- of Size = (4) 

-- ISN: (83136) : L from (0x7fffffffece0) -- of Size = (4) 

-- ISN: (83142) : L from (0x7fffffffece0) -- of Size = (4) 

-- ISN: (83145) : S -> 0x(b) at (0x7fffffffece0) -- Size = (4) 

-- ISN: (83141) : S -> 0x(a) at (0x6bc468) -- Size = (4) 

-- ISN: (83146) : L from (0x7fffffffece0) -- of Size = (4) 

-- ISN: (83152) : L from (0x7fffffffece0) -- of Size = (4) 

-- ISN: (83153) : L from (0x7fffffffece0) -- of Size = (4) 

-- ISN: (83159) : L from (0x7fffffffece0) -- of Size = (4) 

-- ISN: (83162) : S -> 0x(c) at (0x7fffffffece0) -- Size = (4) 

-- ISN: (83158) : S -> 0x(b) at (0x6bc46c) -- Size = (4) 

-- ISN: (83163) : L from (0x7fffffffece0) -- of Size = (4) 

-- ISN: (83169) : L from (0x7fffffffece0) -- of Size = (4) 

-- ISN: (83170) : L from (0x7fffffffece0) -- of Size = (4) 

-- ISN: (83176) : L from (0x7fffffffece0) -- of Size = (4) 

-- ISN: (83179) : S -> 0x(d) at (0x7fffffffece0) -- Size = (4) 

-- ISN: (83175) : S -> 0x(c) at (0x6bc470) -- Size = (4) 

-- ISN: (83180) : L from (0x7fffffffece0) -- of Size = (4) 

-- ISN: (83186) : L from (0x7fffffffece0) -- of Size = (4) 

-- ISN: (83187) : L from (0x7fffffffece0) -- of Size = (4) 

-- ISN: (83193) : L from (0x7fffffffece0) -- of Size = (4) 

-- ISN: (83196) : S -> 0x(e) at (0x7fffffffece0) -- Size = (4) 

-- ISN: (83192) : S -> 0x(d) at (0x6bc474) -- Size = (4) 

-- ISN: (83197) : L from (0x7fffffffece0) -- of Size = (4) 

-- ISN: (83203) : L from (0x7fffffffece0) -- of Size = (4) 

-- ISN: (83204) : L from (0x7fffffffece0) -- of Size = (4) 

-- ISN: (83210) : L from (0x7fffffffece0) -- of Size = (4) 

-- ISN: (83213) : S -> 0x(f) at (0x7fffffffece0) -- Size = (4) 

-- ISN: (83209) : S -> 0x(e) at (0x6bc478) -- Size = (4) 

-- ISN: (83214) : L from (0x7fffffffece0) -- of Size = (4) 

-- ISN: (83220) : L from (0x7fffffffece0) -- of Size = (4) 

-- ISN: (83221) : L from (0x7fffffffece0) -- of Size = (4) 

-- ISN: (83227) : L from (0x7fffffffece0) -- of Size = (4) 

-- ISN: (83230) : S -> 0x(10) at (0x7fffffffece0) -- Size = (4) 

-- ISN: (83226) : S -> 0x(f) at (0x6bc47c) -- Size = (4) 

-- ISN: (83231) : L from (0x7fffffffece0) -- of Size = (4) 

-- ISN: (83237) : L from (0x7fffffffece0) -- of Size = (4) 

-- ISN: (83238) : L from (0x7fffffffece0) -- of Size = (4) 

-- ISN: (83244) : L from (0x7fffffffece0) -- of Size = (4) 

-- ISN: (83247) : S -> 0x(11) at (0x7fffffffece0) -- Size = (4) 

-- ISN: (83243) : S -> 0x(10) at (0x6bc480) -- Size = (4) 

-- ISN: (83248) : L from (0x7fffffffece0) -- of Size = (4) 

-- ISN: (83254) : L from (0x7fffffffece0) -- of Size = (4) 

-- ISN: (83255) : L from (0x7fffffffece0) -- of Size = (4) 

-- ISN: (83261) : L from (0x7fffffffece0) -- of Size = (4) 

-- ISN: (83264) : S -> 0x(12) at (0x7fffffffece0) -- Size = (4) 

-- ISN: (83260) : S -> 0x(11) at (0x6bc484) -- Size = (4) 

-- ISN: (83265) : L from (0x7fffffffece0) -- of Size = (4) 

-- ISN: (83271) : L from (0x7fffffffece0) -- of Size = (4) 

-- ISN: (83272) : L from (0x7fffffffece0) -- of Size = (4) 

-- ISN: (83278) : L from (0x7fffffffece0) -- of Size = (4) 

-- ISN: (83281) : S -> 0x(13) at (0x7fffffffece0) -- Size = (4) 

-- ISN: (83277) : S -> 0x(12) at (0x6bc488) -- Size = (4) 

-- ISN: (83282) : L from (0x7fffffffece0) -- of Size = (4) 

-- ISN: (83288) : L from (0x7fffffffece0) -- of Size = (4) 

-- ISN: (83289) : L from (0x7fffffffece0) -- of Size = (4) 

-- ISN: (83295) : L from (0x7fffffffece0) -- of Size = (4) 

-- ISN: (83298) : S -> 0x(14) at (0x7fffffffece0) -- Size = (4) 

-- ISN: (83294) : S -> 0x(13) at (0x6bc48c) -- Size = (4) 

-- ISN: (83299) : L from (0x7fffffffece0) -- of Size = (4) 

-- ISN: (83305) : L from (0x7fffffffece0) -- of Size = (4) 

-- ISN: (83306) : L from (0x7fffffffece0) -- of Size = (4) 

-- ISN: (83312) : L from (0x7fffffffece0) -- of Size = (4) 

-- ISN: (83315) : S -> 0x(15) at (0x7fffffffece0) -- Size = (4) 

-- ISN: (83311) : S -> 0x(14) at (0x6bc490) -- Size = (4) 

-- ISN: (83316) : L from (0x7fffffffece0) -- of Size = (4) 

-- ISN: (83322) : L from (0x7fffffffece0) -- of Size = (4) 

-- ISN: (83323) : L from (0x7fffffffece0) -- of Size = (4) 

-- ISN: (83329) : L from (0x7fffffffece0) -- of Size = (4) 

-- ISN: (83332) : S -> 0x(16) at (0x7fffffffece0) -- Size = (4) 

-- ISN: (83328) : S -> 0x(15) at (0x6bc494) -- Size = (4) 

-- ISN: (83333) : L from (0x7fffffffece0) -- of Size = (4) 

-- ISN: (83339) : L from (0x7fffffffece0) -- of Size = (4) 

-- ISN: (83340) : L from (0x7fffffffece0) -- of Size = (4) 

-- ISN: (83346) : L from (0x7fffffffece0) -- of Size = (4) 

-- ISN: (83349) : S -> 0x(17) at (0x7fffffffece0) -- Size = (4) 

-- ISN: (83345) : S -> 0x(16) at (0x6bc498) -- Size = (4) 

-- ISN: (83350) : L from (0x7fffffffece0) -- of Size = (4) 

-- ISN: (83356) : L from (0x7fffffffece0) -- of Size = (4) 

-- ISN: (83357) : L from (0x7fffffffece0) -- of Size = (4) 

-- ISN: (83363) : L from (0x7fffffffece0) -- of Size = (4) 

-- ISN: (83366) : S -> 0x(18) at (0x7fffffffece0) -- Size = (4) 

-- ISN: (83362) : S -> 0x(17) at (0x6bc49c) -- Size = (4) 

-- ISN: (83367) : L from (0x7fffffffece0) -- of Size = (4) 

-- ISN: (83373) : L from (0x7fffffffece0) -- of Size = (4) 

-- ISN: (83374) : L from (0x7fffffffece0) -- of Size = (4) 

-- ISN: (83380) : L from (0x7fffffffece0) -- of Size = (4) 

-- ISN: (83383) : S -> 0x(19) at (0x7fffffffece0) -- Size = (4) 

-- ISN: (83379) : S -> 0x(18) at (0x6bc4a0) -- Size = (4) 

-- ISN: (83384) : L from (0x7fffffffece0) -- of Size = (4) 

-- ISN: (83390) : L from (0x7fffffffece0) -- of Size = (4) 

-- ISN: (83391) : L from (0x7fffffffece0) -- of Size = (4) 

-- ISN: (83397) : L from (0x7fffffffece0) -- of Size = (4) 

-- ISN: (83400) : S -> 0x(1a) at (0x7fffffffece0) -- Size = (4) 

-- ISN: (83396) : S -> 0x(19) at (0x6bc4a4) -- Size = (4) 

-- ISN: (83401) : L from (0x7fffffffece0) -- of Size = (4) 

-- ISN: (83407) : L from (0x7fffffffece0) -- of Size = (4) 

-- ISN: (83408) : L from (0x7fffffffece0) -- of Size = (4) 

-- ISN: (83414) : L from (0x7fffffffece0) -- of Size = (4) 

-- ISN: (83417) : S -> 0x(1b) at (0x7fffffffece0) -- Size = (4) 

-- ISN: (83413) : S -> 0x(1a) at (0x6bc4a8) -- Size = (4) 

-- ISN: (83418) : L from (0x7fffffffece0) -- of Size = (4) 

-- ISN: (83424) : L from (0x7fffffffece0) -- of Size = (4) 

-- ISN: (83425) : L from (0x7fffffffece0) -- of Size = (4) 

-- ISN: (83431) : L from (0x7fffffffece0) -- of Size = (4) 

-- ISN: (83434) : S -> 0x(1c) at (0x7fffffffece0) -- Size = (4) 

-- ISN: (83430) : S -> 0x(1b) at (0x6bc4ac) -- Size = (4) 

-- ISN: (83435) : L from (0x7fffffffece0) -- of Size = (4) 

-- ISN: (83441) : L from (0x7fffffffece0) -- of Size = (4) 

-- ISN: (83442) : L from (0x7fffffffece0) -- of Size = (4) 

-- ISN: (83448) : L from (0x7fffffffece0) -- of Size = (4) 

-- ISN: (83451) : S -> 0x(1d) at (0x7fffffffece0) -- Size = (4) 

-- ISN: (83447) : S -> 0x(1c) at (0x6bc4b0) -- Size = (4) 

-- ISN: (83452) : L from (0x7fffffffece0) -- of Size = (4) 

-- ISN: (83458) : L from (0x7fffffffece0) -- of Size = (4) 

-- ISN: (83459) : L from (0x7fffffffece0) -- of Size = (4) 

-- ISN: (83465) : L from (0x7fffffffece0) -- of Size = (4) 

-- ISN: (83468) : S -> 0x(1e) at (0x7fffffffece0) -- Size = (4) 

-- ISN: (83464) : S -> 0x(1d) at (0x6bc4b4) -- Size = (4) 

-- ISN: (83469) : L from (0x7fffffffece0) -- of Size = (4) 

-- ISN: (83475) : L from (0x7fffffffece0) -- of Size = (4) 

-- ISN: (83476) : L from (0x7fffffffece0) -- of Size = (4) 

-- ISN: (83482) : L from (0x7fffffffece0) -- of Size = (4) 

-- ISN: (83485) : S -> 0x(1f) at (0x7fffffffece0) -- Size = (4) 

-- ISN: (83481) : S -> 0x(1e) at (0x6bc4b8) -- Size = (4) 

-- ISN: (83486) : L from (0x7fffffffece0) -- of Size = (4) 

-- ISN: (83492) : L from (0x7fffffffece0) -- of Size = (4) 

-- ISN: (83493) : L from (0x7fffffffece0) -- of Size = (4) 

-- ISN: (83499) : L from (0x7fffffffece0) -- of Size = (4) 

-- ISN: (83502) : S -> 0x(20) at (0x7fffffffece0) -- Size = (4) 

-- ISN: (83498) : S -> 0x(1f) at (0x6bc4bc) -- Size = (4) 

-- ISN: (83503) : L from (0x7fffffffece0) -- of Size = (4) 

-- ISN: (83509) : L from (0x7fffffffece0) -- of Size = (4) 

-- ISN: (83510) : L from (0x7fffffffece0) -- of Size = (4) 

-- ISN: (83516) : L from (0x7fffffffece0) -- of Size = (4) 

-- ISN: (83515) : S -> 0x(20) at (0x6bc4c0) -- Size = (4) 

-- ISN: (83519) : S -> 0x(21) at (0x7fffffffece0) -- Size = (4) 

-- ISN: (83520) : L from (0x7fffffffece0) -- of Size = (4) 

-- ISN: (83526) : L from (0x7fffffffece0) -- of Size = (4) 

-- ISN: (83527) : L from (0x7fffffffece0) -- of Size = (4) 

-- ISN: (83533) : L from (0x7fffffffece0) -- of Size = (4) 

-- ISN: (83543) : L from (0x7fffffffece0) -- of Size = (4) 

-- ISN: (83544) : L from (0x7fffffffece0) -- of Size = (4) 

-- ISN: (83536) : S -> 0x(22) at (0x7fffffffece0) -- Size = (4) 

-- ISN: (83550) : L from (0x7fffffffece0) -- of Size = (4) 

-- ISN: (83532) : S -> 0x(21) at (0x6bc4c4) -- Size = (4) 

-- ISN: (83537) : L from (0x7fffffffece0) -- of Size = (4) 

-- ISN: (83560) : L from (0x7fffffffece0) -- of Size = (4) 

-- ISN: (83561) : L from (0x7fffffffece0) -- of Size = (4) 

-- Sqsh -> ISN (83542)

-- ISN: (83588) : L from (0x7fffffffece0) -- of Size = (4) 

-- ISN: (83589) : L from (0x7fffffffece0) -- of Size = (4) 

-- ISN: (83595) : L from (0x7fffffffece0) -- of Size = (4) 

-- ISN: (83599) : L from (0x7fffffffece0) -- of Size = (4) 

-- ISN: (83594) : S -> 0x(22) at (0x6bc4c8) -- Size = (4) 

-- ISN: (83598) : S -> 0x(23) at (0x7fffffffece0) -- Size = (4) 

-- ISN: (83606) : L from (0x7fffffffece0) -- of Size = (4) 

-- ISN: (83612) : L from (0x7fffffffece0) -- of Size = (4) 

-- ISN: (83605) : L from (0x7fffffffece0) -- of Size = (4) 

-- Sqsh -> ISN (83598)

-- ISN: (83633) : L from (0x7fffffffece0) -- of Size = (4) 

-- ISN: (83639) : L from (0x7fffffffece0) -- of Size = (4) 

-- ISN: (83640) : L from (0x7fffffffece0) -- of Size = (4) 

-- ISN: (83646) : L from (0x7fffffffece0) -- of Size = (4) 

-- ISN: (83649) : S -> 0x(24) at (0x7fffffffece0) -- Size = (4) 

-- ISN: (83645) : S -> 0x(23) at (0x6bc4cc) -- Size = (4) 

-- ISN: (83650) : L from (0x7fffffffece0) -- of Size = (4) 

-- ISN: (83656) : L from (0x7fffffffece0) -- of Size = (4) 

-- ISN: (83657) : L from (0x7fffffffece0) -- of Size = (4) 

-- ISN: (83663) : L from (0x7fffffffece0) -- of Size = (4) 

-- ISN: (83662) : S -> 0x(24) at (0x6bc4d0) -- Size = (4) 

-- ISN: (83666) : S -> 0x(25) at (0x7fffffffece0) -- Size = (4) 

-- ISN: (83667) : L from (0x7fffffffece0) -- of Size = (4) 

-- ISN: (83673) : L from (0x7fffffffece0) -- of Size = (4) 

-- ISN: (83674) : L from (0x7fffffffece0) -- of Size = (4) 

-- ISN: (83680) : L from (0x7fffffffece0) -- of Size = (4) 

-- ISN: (83683) : S -> 0x(26) at (0x7fffffffece0) -- Size = (4) 

-- ISN: (83679) : S -> 0x(25) at (0x6bc4d4) -- Size = (4) 

-- ISN: (83684) : L from (0x7fffffffece0) -- of Size = (4) 

-- ISN: (83690) : L from (0x7fffffffece0) -- of Size = (4) 

-- ISN: (83691) : L from (0x7fffffffece0) -- of Size = (4) 

-- ISN: (83697) : L from (0x7fffffffece0) -- of Size = (4) 

-- ISN: (83700) : S -> 0x(27) at (0x7fffffffece0) -- Size = (4) 

-- ISN: (83696) : S -> 0x(26) at (0x6bc4d8) -- Size = (4) 

-- ISN: (83701) : L from (0x7fffffffece0) -- of Size = (4) 

-- ISN: (83707) : L from (0x7fffffffece0) -- of Size = (4) 

-- ISN: (83708) : L from (0x7fffffffece0) -- of Size = (4) 

-- ISN: (83714) : L from (0x7fffffffece0) -- of Size = (4) 

-- ISN: (83717) : S -> 0x(28) at (0x7fffffffece0) -- Size = (4) 

-- ISN: (83713) : S -> 0x(27) at (0x6bc4dc) -- Size = (4) 

-- ISN: (83718) : L from (0x7fffffffece0) -- of Size = (4) 

-- ISN: (83724) : L from (0x7fffffffece0) -- of Size = (4) 

-- ISN: (83725) : L from (0x7fffffffece0) -- of Size = (4) 

-- ISN: (83731) : L from (0x7fffffffece0) -- of Size = (4) 

-- ISN: (83734) : S -> 0x(29) at (0x7fffffffece0) -- Size = (4) 

-- ISN: (83730) : S -> 0x(28) at (0x6bc4e0) -- Size = (4) 

-- ISN: (83735) : L from (0x7fffffffece0) -- of Size = (4) 

-- ISN: (83741) : L from (0x7fffffffece0) -- of Size = (4) 

-- ISN: (83742) : L from (0x7fffffffece0) -- of Size = (4) 

-- ISN: (83748) : L from (0x7fffffffece0) -- of Size = (4) 

-- ISN: (83751) : S -> 0x(2a) at (0x7fffffffece0) -- Size = (4) 

-- ISN: (83747) : S -> 0x(29) at (0x6bc4e4) -- Size = (4) 

-- ISN: (83752) : L from (0x7fffffffece0) -- of Size = (4) 

-- ISN: (83758) : L from (0x7fffffffece0) -- of Size = (4) 

-- ISN: (83759) : L from (0x7fffffffece0) -- of Size = (4) 

-- ISN: (83765) : L from (0x7fffffffece0) -- of Size = (4) 

-- ISN: (83768) : S -> 0x(2b) at (0x7fffffffece0) -- Size = (4) 

-- ISN: (83764) : S -> 0x(2a) at (0x6bc4e8) -- Size = (4) 

-- ISN: (83769) : L from (0x7fffffffece0) -- of Size = (4) 

-- ISN: (83775) : L from (0x7fffffffece0) -- of Size = (4) 

-- ISN: (83776) : L from (0x7fffffffece0) -- of Size = (4) 

-- ISN: (83782) : L from (0x7fffffffece0) -- of Size = (4) 

-- ISN: (83785) : S -> 0x(2c) at (0x7fffffffece0) -- Size = (4) 

-- ISN: (83781) : S -> 0x(2b) at (0x6bc4ec) -- Size = (4) 

-- ISN: (83786) : L from (0x7fffffffece0) -- of Size = (4) 

-- ISN: (83792) : L from (0x7fffffffece0) -- of Size = (4) 

-- ISN: (83793) : L from (0x7fffffffece0) -- of Size = (4) 

-- ISN: (83799) : L from (0x7fffffffece0) -- of Size = (4) 

-- ISN: (83802) : S -> 0x(2d) at (0x7fffffffece0) -- Size = (4) 

-- ISN: (83798) : S -> 0x(2c) at (0x6bc4f0) -- Size = (4) 

-- ISN: (83803) : L from (0x7fffffffece0) -- of Size = (4) 

-- ISN: (83809) : L from (0x7fffffffece0) -- of Size = (4) 

-- ISN: (83810) : L from (0x7fffffffece0) -- of Size = (4) 

-- ISN: (83816) : L from (0x7fffffffece0) -- of Size = (4) 

-- ISN: (83819) : S -> 0x(2e) at (0x7fffffffece0) -- Size = (4) 

-- ISN: (83815) : S -> 0x(2d) at (0x6bc4f4) -- Size = (4) 

-- ISN: (83820) : L from (0x7fffffffece0) -- of Size = (4) 

-- ISN: (83826) : L from (0x7fffffffece0) -- of Size = (4) 

-- ISN: (83827) : L from (0x7fffffffece0) -- of Size = (4) 

-- ISN: (83833) : L from (0x7fffffffece0) -- of Size = (4) 

-- ISN: (83836) : S -> 0x(2f) at (0x7fffffffece0) -- Size = (4) 

-- ISN: (83832) : S -> 0x(2e) at (0x6bc4f8) -- Size = (4) 

-- ISN: (83837) : L from (0x7fffffffece0) -- of Size = (4) 

-- ISN: (83843) : L from (0x7fffffffece0) -- of Size = (4) 

-- ISN: (83844) : L from (0x7fffffffece0) -- of Size = (4) 

-- ISN: (83850) : L from (0x7fffffffece0) -- of Size = (4) 

-- ISN: (83853) : S -> 0x(30) at (0x7fffffffece0) -- Size = (4) 

-- ISN: (83849) : S -> 0x(2f) at (0x6bc4fc) -- Size = (4) 

-- ISN: (83854) : L from (0x7fffffffece0) -- of Size = (4) 

-- ISN: (83860) : L from (0x7fffffffece0) -- of Size = (4) 

-- ISN: (83861) : L from (0x7fffffffece0) -- of Size = (4) 

-- ISN: (83867) : L from (0x7fffffffece0) -- of Size = (4) 

-- ISN: (83866) : S -> 0x(30) at (0x6bc500) -- Size = (4) 

-- ISN: (83870) : S -> 0x(31) at (0x7fffffffece0) -- Size = (4) 

-- ISN: (83871) : L from (0x7fffffffece0) -- of Size = (4) 

-- ISN: (83877) : L from (0x7fffffffece0) -- of Size = (4) 

-- ISN: (83878) : L from (0x7fffffffece0) -- of Size = (4) 

-- ISN: (83884) : L from (0x7fffffffece0) -- of Size = (4) 

-- ISN: (83895) : L from (0x7fffffffece0) -- of Size = (4) 

-- ISN: (83887) : S -> 0x(32) at (0x7fffffffece0) -- Size = (4) 

-- ISN: (83901) : L from (0x7fffffffece0) -- of Size = (4) 

-- ISN: (83883) : S -> 0x(31) at (0x6bc504) -- Size = (4) 

-- ISN: (83888) : L from (0x7fffffffece0) -- of Size = (4) 

-- ISN: (83894) : L from (0x7fffffffece0) -- of Size = (4) 

-- ISN: (83912) : L from (0x7fffffffece0) -- of Size = (4) 

-- Sqsh -> ISN (83894)

-- ISN: (83939) : L from (0x7fffffffece0) -- of Size = (4) 

-- ISN: (83945) : L from (0x7fffffffece0) -- of Size = (4) 

-- ISN: (83944) : S -> 0x(32) at (0x6bc508) -- Size = (4) 

-- ISN: (83948) : S -> 0x(33) at (0x7fffffffece0) -- Size = (4) 

-- ISN: (83949) : L from (0x7fffffffece0) -- of Size = (4) 

-- ISN: (83955) : L from (0x7fffffffece0) -- of Size = (4) 

-- ISN: (83956) : L from (0x7fffffffece0) -- of Size = (4) 

-- ISN: (83962) : L from (0x7fffffffece0) -- of Size = (4) 

-- ISN: (83965) : S -> 0x(34) at (0x7fffffffece0) -- Size = (4) 

-- ISN: (83961) : S -> 0x(33) at (0x6bc50c) -- Size = (4) 

-- ISN: (83966) : L from (0x7fffffffece0) -- of Size = (4) 

-- ISN: (83972) : L from (0x7fffffffece0) -- of Size = (4) 

-- ISN: (83973) : L from (0x7fffffffece0) -- of Size = (4) 

-- ISN: (83979) : L from (0x7fffffffece0) -- of Size = (4) 

-- ISN: (83982) : S -> 0x(35) at (0x7fffffffece0) -- Size = (4) 

-- ISN: (83978) : S -> 0x(34) at (0x6bc510) -- Size = (4) 

-- ISN: (83983) : L from (0x7fffffffece0) -- of Size = (4) 

-- ISN: (83989) : L from (0x7fffffffece0) -- of Size = (4) 

-- ISN: (83990) : L from (0x7fffffffece0) -- of Size = (4) 

-- ISN: (83996) : L from (0x7fffffffece0) -- of Size = (4) 

-- ISN: (83999) : S -> 0x(36) at (0x7fffffffece0) -- Size = (4) 

-- ISN: (83995) : S -> 0x(35) at (0x6bc514) -- Size = (4) 

-- ISN: (84000) : L from (0x7fffffffece0) -- of Size = (4) 

-- ISN: (84006) : L from (0x7fffffffece0) -- of Size = (4) 

-- ISN: (84007) : L from (0x7fffffffece0) -- of Size = (4) 

-- ISN: (84013) : L from (0x7fffffffece0) -- of Size = (4) 

-- ISN: (84016) : S -> 0x(37) at (0x7fffffffece0) -- Size = (4) 

-- ISN: (84012) : S -> 0x(36) at (0x6bc518) -- Size = (4) 

-- ISN: (84017) : L from (0x7fffffffece0) -- of Size = (4) 

-- ISN: (84023) : L from (0x7fffffffece0) -- of Size = (4) 

-- ISN: (84024) : L from (0x7fffffffece0) -- of Size = (4) 

-- ISN: (84030) : L from (0x7fffffffece0) -- of Size = (4) 

-- ISN: (84033) : S -> 0x(38) at (0x7fffffffece0) -- Size = (4) 

-- ISN: (84029) : S -> 0x(37) at (0x6bc51c) -- Size = (4) 

-- ISN: (84034) : L from (0x7fffffffece0) -- of Size = (4) 

-- ISN: (84040) : L from (0x7fffffffece0) -- of Size = (4) 

-- ISN: (84041) : L from (0x7fffffffece0) -- of Size = (4) 

-- ISN: (84047) : L from (0x7fffffffece0) -- of Size = (4) 

-- ISN: (84050) : S -> 0x(39) at (0x7fffffffece0) -- Size = (4) 

-- ISN: (84046) : S -> 0x(38) at (0x6bc520) -- Size = (4) 

-- ISN: (84051) : L from (0x7fffffffece0) -- of Size = (4) 

-- ISN: (84057) : L from (0x7fffffffece0) -- of Size = (4) 

-- ISN: (84058) : L from (0x7fffffffece0) -- of Size = (4) 

-- ISN: (84064) : L from (0x7fffffffece0) -- of Size = (4) 

-- ISN: (84067) : S -> 0x(3a) at (0x7fffffffece0) -- Size = (4) 

-- ISN: (84063) : S -> 0x(39) at (0x6bc524) -- Size = (4) 

-- ISN: (84068) : L from (0x7fffffffece0) -- of Size = (4) 

-- ISN: (84074) : L from (0x7fffffffece0) -- of Size = (4) 

-- ISN: (84075) : L from (0x7fffffffece0) -- of Size = (4) 

-- ISN: (84081) : L from (0x7fffffffece0) -- of Size = (4) 

-- ISN: (84084) : S -> 0x(3b) at (0x7fffffffece0) -- Size = (4) 

-- ISN: (84080) : S -> 0x(3a) at (0x6bc528) -- Size = (4) 

-- ISN: (84085) : L from (0x7fffffffece0) -- of Size = (4) 

-- ISN: (84091) : L from (0x7fffffffece0) -- of Size = (4) 

-- ISN: (84092) : L from (0x7fffffffece0) -- of Size = (4) 

-- ISN: (84098) : L from (0x7fffffffece0) -- of Size = (4) 

-- ISN: (84101) : S -> 0x(3c) at (0x7fffffffece0) -- Size = (4) 

-- ISN: (84097) : S -> 0x(3b) at (0x6bc52c) -- Size = (4) 

-- ISN: (84102) : L from (0x7fffffffece0) -- of Size = (4) 

-- ISN: (84108) : L from (0x7fffffffece0) -- of Size = (4) 

-- ISN: (84109) : L from (0x7fffffffece0) -- of Size = (4) 

-- ISN: (84115) : L from (0x7fffffffece0) -- of Size = (4) 

-- ISN: (84118) : S -> 0x(3d) at (0x7fffffffece0) -- Size = (4) 

-- ISN: (84114) : S -> 0x(3c) at (0x6bc530) -- Size = (4) 

-- ISN: (84119) : L from (0x7fffffffece0) -- of Size = (4) 

-- ISN: (84125) : L from (0x7fffffffece0) -- of Size = (4) 

-- ISN: (84126) : L from (0x7fffffffece0) -- of Size = (4) 

-- ISN: (84132) : L from (0x7fffffffece0) -- of Size = (4) 

-- ISN: (84135) : S -> 0x(3e) at (0x7fffffffece0) -- Size = (4) 

-- ISN: (84131) : S -> 0x(3d) at (0x6bc534) -- Size = (4) 

-- ISN: (84136) : L from (0x7fffffffece0) -- of Size = (4) 

-- ISN: (84142) : L from (0x7fffffffece0) -- of Size = (4) 

-- ISN: (84143) : L from (0x7fffffffece0) -- of Size = (4) 

-- ISN: (84149) : L from (0x7fffffffece0) -- of Size = (4) 

-- ISN: (84152) : S -> 0x(3f) at (0x7fffffffece0) -- Size = (4) 

-- ISN: (84148) : S -> 0x(3e) at (0x6bc538) -- Size = (4) 

-- ISN: (84153) : L from (0x7fffffffece0) -- of Size = (4) 

-- ISN: (84159) : L from (0x7fffffffece0) -- of Size = (4) 

-- ISN: (84160) : L from (0x7fffffffece0) -- of Size = (4) 

-- ISN: (84166) : L from (0x7fffffffece0) -- of Size = (4) 

-- ISN: (84169) : S -> 0x(40) at (0x7fffffffece0) -- Size = (4) 

-- ISN: (84165) : S -> 0x(3f) at (0x6bc53c) -- Size = (4) 

-- ISN: (84170) : L from (0x7fffffffece0) -- of Size = (4) 

-- ISN: (84176) : L from (0x7fffffffece0) -- of Size = (4) 

-- ISN: (84177) : L from (0x7fffffffece0) -- of Size = (4) 

-- ISN: (84183) : L from (0x7fffffffece0) -- of Size = (4) 

-- ISN: (84182) : S -> 0x(40) at (0x6bc540) -- Size = (4) 

-- ISN: (84186) : S -> 0x(41) at (0x7fffffffece0) -- Size = (4) 

-- ISN: (84187) : L from (0x7fffffffece0) -- of Size = (4) 

-- ISN: (84193) : L from (0x7fffffffece0) -- of Size = (4) 

-- ISN: (84194) : L from (0x7fffffffece0) -- of Size = (4) 

-- ISN: (84200) : L from (0x7fffffffece0) -- of Size = (4) 

-- ISN: (84203) : S -> 0x(42) at (0x7fffffffece0) -- Size = (4) 

-- ISN: (84217) : L from (0x7fffffffece0) -- of Size = (4) 

-- ISN: (84199) : S -> 0x(41) at (0x6bc544) -- Size = (4) 

-- ISN: (84204) : L from (0x7fffffffece0) -- of Size = (4) 

-- ISN: (84210) : L from (0x7fffffffece0) -- of Size = (4) 

-- ISN: (84211) : L from (0x7fffffffece0) -- of Size = (4) 

-- ISN: (84220) : S -> 0x(43) at (0x7fffffffece0) -- Size = (4) 

-- ISN: (84234) : L from (0x7fffffffece0) -- of Size = (4) 

-- ISN: (84221) : L from (0x7fffffffece0) -- of Size = (4) 

-- ISN: (84227) : L from (0x7fffffffece0) -- of Size = (4) 

-- ISN: (84228) : L from (0x7fffffffece0) -- of Size = (4) 

-- ISN: (84216) : S -> 0x(42) at (0x6bc548) -- Size = (4) 

-- ISN: (84237) : S -> 0x(44) at (0x7fffffffece0) -- Size = (4) 

-- ISN: (84238) : L from (0x7fffffffece0) -- of Size = (4) 

-- ISN: (84244) : L from (0x7fffffffece0) -- of Size = (4) 

-- ISN: (84245) : L from (0x7fffffffece0) -- of Size = (4) 

-- ISN: (84251) : L from (0x7fffffffece0) -- of Size = (4) 

-- ISN: (84233) : S -> 0x(43) at (0x6bc54c) -- Size = (4) 

-- ISN: (84250) : S -> 0x(44) at (0x6bc550) -- Size = (4) 

-- ISN: (84254) : S -> 0x(45) at (0x7fffffffece0) -- Size = (4) 

-- ISN: (84255) : L from (0x7fffffffece0) -- of Size = (4) 

-- ISN: (84261) : L from (0x7fffffffece0) -- of Size = (4) 

-- ISN: (84262) : L from (0x7fffffffece0) -- of Size = (4) 

-- ISN: (84268) : L from (0x7fffffffece0) -- of Size = (4) 

-- ISN: (84271) : S -> 0x(46) at (0x7fffffffece0) -- Size = (4) 

-- ISN: (84267) : S -> 0x(45) at (0x6bc554) -- Size = (4) 

-- ISN: (84272) : L from (0x7fffffffece0) -- of Size = (4) 

-- ISN: (84278) : L from (0x7fffffffece0) -- of Size = (4) 

-- ISN: (84279) : L from (0x7fffffffece0) -- of Size = (4) 

-- ISN: (84285) : L from (0x7fffffffece0) -- of Size = (4) 

-- ISN: (84288) : S -> 0x(47) at (0x7fffffffece0) -- Size = (4) 

-- ISN: (84302) : L from (0x7fffffffece0) -- of Size = (4) 

-- ISN: (84284) : S -> 0x(46) at (0x6bc558) -- Size = (4) 

-- ISN: (84289) : L from (0x7fffffffece0) -- of Size = (4) 

-- ISN: (84295) : L from (0x7fffffffece0) -- of Size = (4) 

-- ISN: (84296) : L from (0x7fffffffece0) -- of Size = (4) 

-- ISN: (84305) : S -> 0x(48) at (0x7fffffffece0) -- Size = (4) 

-- ISN: (84306) : L from (0x7fffffffece0) -- of Size = (4) 

-- ISN: (84301) : S -> 0x(47) at (0x6bc55c) -- Size = (4) 

-- ISN: (84312) : L from (0x7fffffffece0) -- of Size = (4) 

-- ISN: (84313) : L from (0x7fffffffece0) -- of Size = (4) 

-- ISN: (84319) : L from (0x7fffffffece0) -- of Size = (4) 

-- ISN: (84322) : S -> 0x(49) at (0x7fffffffece0) -- Size = (4) 

-- ISN: (84318) : S -> 0x(48) at (0x6bc560) -- Size = (4) 

-- ISN: (84323) : L from (0x7fffffffece0) -- of Size = (4) 

-- ISN: (84329) : L from (0x7fffffffece0) -- of Size = (4) 

-- ISN: (84330) : L from (0x7fffffffece0) -- of Size = (4) 

-- ISN: (84336) : L from (0x7fffffffece0) -- of Size = (4) 

-- ISN: (84339) : S -> 0x(4a) at (0x7fffffffece0) -- Size = (4) 

-- ISN: (84335) : S -> 0x(49) at (0x6bc564) -- Size = (4) 

-- ISN: (84340) : L from (0x7fffffffece0) -- of Size = (4) 

-- ISN: (84346) : L from (0x7fffffffece0) -- of Size = (4) 

-- ISN: (84347) : L from (0x7fffffffece0) -- of Size = (4) 

-- ISN: (84353) : L from (0x7fffffffece0) -- of Size = (4) 

-- ISN: (84356) : S -> 0x(4b) at (0x7fffffffece0) -- Size = (4) 

-- ISN: (84352) : S -> 0x(4a) at (0x6bc568) -- Size = (4) 

-- ISN: (84357) : L from (0x7fffffffece0) -- of Size = (4) 

-- ISN: (84363) : L from (0x7fffffffece0) -- of Size = (4) 

-- ISN: (84364) : L from (0x7fffffffece0) -- of Size = (4) 

-- ISN: (84370) : L from (0x7fffffffece0) -- of Size = (4) 

-- ISN: (84373) : S -> 0x(4c) at (0x7fffffffece0) -- Size = (4) 

-- ISN: (84369) : S -> 0x(4b) at (0x6bc56c) -- Size = (4) 

-- ISN: (84374) : L from (0x7fffffffece0) -- of Size = (4) 

-- ISN: (84380) : L from (0x7fffffffece0) -- of Size = (4) 

-- ISN: (84381) : L from (0x7fffffffece0) -- of Size = (4) 

-- ISN: (84387) : L from (0x7fffffffece0) -- of Size = (4) 

-- ISN: (84390) : S -> 0x(4d) at (0x7fffffffece0) -- Size = (4) 

-- ISN: (84386) : S -> 0x(4c) at (0x6bc570) -- Size = (4) 

-- ISN: (84391) : L from (0x7fffffffece0) -- of Size = (4) 

-- ISN: (84397) : L from (0x7fffffffece0) -- of Size = (4) 

-- ISN: (84398) : L from (0x7fffffffece0) -- of Size = (4) 

-- ISN: (84404) : L from (0x7fffffffece0) -- of Size = (4) 

-- ISN: (84407) : S -> 0x(4e) at (0x7fffffffece0) -- Size = (4) 

-- ISN: (84403) : S -> 0x(4d) at (0x6bc574) -- Size = (4) 

-- ISN: (84408) : L from (0x7fffffffece0) -- of Size = (4) 

-- ISN: (84414) : L from (0x7fffffffece0) -- of Size = (4) 

-- ISN: (84415) : L from (0x7fffffffece0) -- of Size = (4) 

-- ISN: (84421) : L from (0x7fffffffece0) -- of Size = (4) 

-- ISN: (84424) : S -> 0x(4f) at (0x7fffffffece0) -- Size = (4) 

-- ISN: (84420) : S -> 0x(4e) at (0x6bc578) -- Size = (4) 

-- ISN: (84425) : L from (0x7fffffffece0) -- of Size = (4) 

-- ISN: (84431) : L from (0x7fffffffece0) -- of Size = (4) 

-- ISN: (84432) : L from (0x7fffffffece0) -- of Size = (4) 

-- ISN: (84438) : L from (0x7fffffffece0) -- of Size = (4) 

-- ISN: (84441) : S -> 0x(50) at (0x7fffffffece0) -- Size = (4) 

-- ISN: (84437) : S -> 0x(4f) at (0x6bc57c) -- Size = (4) 

-- ISN: (84442) : L from (0x7fffffffece0) -- of Size = (4) 

-- ISN: (84448) : L from (0x7fffffffece0) -- of Size = (4) 

-- ISN: (84449) : L from (0x7fffffffece0) -- of Size = (4) 

-- ISN: (84455) : L from (0x7fffffffece0) -- of Size = (4) 

-- ISN: (84454) : S -> 0x(50) at (0x6bc580) -- Size = (4) 

-- ISN: (84458) : S -> 0x(51) at (0x7fffffffece0) -- Size = (4) 

-- ISN: (84459) : L from (0x7fffffffece0) -- of Size = (4) 

-- ISN: (84465) : L from (0x7fffffffece0) -- of Size = (4) 

-- ISN: (84466) : L from (0x7fffffffece0) -- of Size = (4) 

-- ISN: (84472) : L from (0x7fffffffece0) -- of Size = (4) 

-- ISN: (84475) : S -> 0x(52) at (0x7fffffffece0) -- Size = (4) 

-- ISN: (84489) : L from (0x7fffffffece0) -- of Size = (4) 

-- ISN: (84471) : S -> 0x(51) at (0x6bc584) -- Size = (4) 

-- ISN: (84476) : L from (0x7fffffffece0) -- of Size = (4) 

-- ISN: (84482) : L from (0x7fffffffece0) -- of Size = (4) 

-- ISN: (84483) : L from (0x7fffffffece0) -- of Size = (4) 

-- ISN: (84492) : S -> 0x(53) at (0x7fffffffece0) -- Size = (4) 

-- ISN: (84506) : L from (0x7fffffffece0) -- of Size = (4) 

-- ISN: (84493) : L from (0x7fffffffece0) -- of Size = (4) 

-- ISN: (84499) : L from (0x7fffffffece0) -- of Size = (4) 

-- ISN: (84500) : L from (0x7fffffffece0) -- of Size = (4) 

-- ISN: (84488) : S -> 0x(52) at (0x6bc588) -- Size = (4) 

-- ISN: (84509) : S -> 0x(54) at (0x7fffffffece0) -- Size = (4) 

-- ISN: (84510) : L from (0x7fffffffece0) -- of Size = (4) 

-- ISN: (84516) : L from (0x7fffffffece0) -- of Size = (4) 

-- ISN: (84517) : L from (0x7fffffffece0) -- of Size = (4) 

-- ISN: (84523) : L from (0x7fffffffece0) -- of Size = (4) 

-- ISN: (84505) : S -> 0x(53) at (0x6bc58c) -- Size = (4) 

-- ISN: (84522) : S -> 0x(54) at (0x6bc590) -- Size = (4) 

-- ISN: (84526) : S -> 0x(55) at (0x7fffffffece0) -- Size = (4) 

-- ISN: (84527) : L from (0x7fffffffece0) -- of Size = (4) 

-- ISN: (84533) : L from (0x7fffffffece0) -- of Size = (4) 

-- ISN: (84534) : L from (0x7fffffffece0) -- of Size = (4) 

-- ISN: (84540) : L from (0x7fffffffece0) -- of Size = (4) 

-- ISN: (84543) : S -> 0x(56) at (0x7fffffffece0) -- Size = (4) 

-- ISN: (84539) : S -> 0x(55) at (0x6bc594) -- Size = (4) 

-- ISN: (84544) : L from (0x7fffffffece0) -- of Size = (4) 

-- ISN: (84550) : L from (0x7fffffffece0) -- of Size = (4) 

-- ISN: (84551) : L from (0x7fffffffece0) -- of Size = (4) 

-- ISN: (84557) : L from (0x7fffffffece0) -- of Size = (4) 

-- ISN: (84560) : S -> 0x(57) at (0x7fffffffece0) -- Size = (4) 

-- ISN: (84574) : L from (0x7fffffffece0) -- of Size = (4) 

-- ISN: (84556) : S -> 0x(56) at (0x6bc598) -- Size = (4) 

-- ISN: (84561) : L from (0x7fffffffece0) -- of Size = (4) 

-- ISN: (84567) : L from (0x7fffffffece0) -- of Size = (4) 

-- ISN: (84568) : L from (0x7fffffffece0) -- of Size = (4) 

-- ISN: (84577) : S -> 0x(58) at (0x7fffffffece0) -- Size = (4) 

-- ISN: (84578) : L from (0x7fffffffece0) -- of Size = (4) 

-- ISN: (84573) : S -> 0x(57) at (0x6bc59c) -- Size = (4) 

-- ISN: (84584) : L from (0x7fffffffece0) -- of Size = (4) 

-- ISN: (84585) : L from (0x7fffffffece0) -- of Size = (4) 

-- ISN: (84591) : L from (0x7fffffffece0) -- of Size = (4) 

-- ISN: (84594) : S -> 0x(59) at (0x7fffffffece0) -- Size = (4) 

-- ISN: (84590) : S -> 0x(58) at (0x6bc5a0) -- Size = (4) 

-- ISN: (84595) : L from (0x7fffffffece0) -- of Size = (4) 

-- ISN: (84601) : L from (0x7fffffffece0) -- of Size = (4) 

-- ISN: (84602) : L from (0x7fffffffece0) -- of Size = (4) 

-- ISN: (84608) : L from (0x7fffffffece0) -- of Size = (4) 

-- ISN: (84611) : S -> 0x(5a) at (0x7fffffffece0) -- Size = (4) 

-- ISN: (84607) : S -> 0x(59) at (0x6bc5a4) -- Size = (4) 

-- ISN: (84612) : L from (0x7fffffffece0) -- of Size = (4) 

-- ISN: (84618) : L from (0x7fffffffece0) -- of Size = (4) 

-- ISN: (84619) : L from (0x7fffffffece0) -- of Size = (4) 

-- ISN: (84625) : L from (0x7fffffffece0) -- of Size = (4) 

-- ISN: (84628) : S -> 0x(5b) at (0x7fffffffece0) -- Size = (4) 

-- ISN: (84624) : S -> 0x(5a) at (0x6bc5a8) -- Size = (4) 

-- ISN: (84629) : L from (0x7fffffffece0) -- of Size = (4) 

-- ISN: (84635) : L from (0x7fffffffece0) -- of Size = (4) 

-- ISN: (84636) : L from (0x7fffffffece0) -- of Size = (4) 

-- ISN: (84642) : L from (0x7fffffffece0) -- of Size = (4) 

-- ISN: (84645) : S -> 0x(5c) at (0x7fffffffece0) -- Size = (4) 

-- ISN: (84641) : S -> 0x(5b) at (0x6bc5ac) -- Size = (4) 

-- ISN: (84646) : L from (0x7fffffffece0) -- of Size = (4) 

-- ISN: (84652) : L from (0x7fffffffece0) -- of Size = (4) 

-- ISN: (84653) : L from (0x7fffffffece0) -- of Size = (4) 

-- ISN: (84659) : L from (0x7fffffffece0) -- of Size = (4) 

-- ISN: (84662) : S -> 0x(5d) at (0x7fffffffece0) -- Size = (4) 

-- ISN: (84658) : S -> 0x(5c) at (0x6bc5b0) -- Size = (4) 

-- ISN: (84663) : L from (0x7fffffffece0) -- of Size = (4) 

-- ISN: (84669) : L from (0x7fffffffece0) -- of Size = (4) 

-- ISN: (84670) : L from (0x7fffffffece0) -- of Size = (4) 

-- ISN: (84676) : L from (0x7fffffffece0) -- of Size = (4) 

-- ISN: (84679) : S -> 0x(5e) at (0x7fffffffece0) -- Size = (4) 

-- ISN: (84675) : S -> 0x(5d) at (0x6bc5b4) -- Size = (4) 

-- ISN: (84680) : L from (0x7fffffffece0) -- of Size = (4) 

-- ISN: (84686) : L from (0x7fffffffece0) -- of Size = (4) 

-- ISN: (84687) : L from (0x7fffffffece0) -- of Size = (4) 

-- ISN: (84693) : L from (0x7fffffffece0) -- of Size = (4) 

-- ISN: (84696) : S -> 0x(5f) at (0x7fffffffece0) -- Size = (4) 

-- ISN: (84692) : S -> 0x(5e) at (0x6bc5b8) -- Size = (4) 

-- ISN: (84697) : L from (0x7fffffffece0) -- of Size = (4) 

-- ISN: (84703) : L from (0x7fffffffece0) -- of Size = (4) 

-- ISN: (84704) : L from (0x7fffffffece0) -- of Size = (4) 

-- ISN: (84710) : L from (0x7fffffffece0) -- of Size = (4) 

-- ISN: (84713) : S -> 0x(60) at (0x7fffffffece0) -- Size = (4) 

-- ISN: (84709) : S -> 0x(5f) at (0x6bc5bc) -- Size = (4) 

-- ISN: (84714) : L from (0x7fffffffece0) -- of Size = (4) 

-- ISN: (84720) : L from (0x7fffffffece0) -- of Size = (4) 

-- ISN: (84721) : L from (0x7fffffffece0) -- of Size = (4) 

-- ISN: (84727) : L from (0x7fffffffece0) -- of Size = (4) 

-- ISN: (84726) : S -> 0x(60) at (0x6bc5c0) -- Size = (4) 

-- ISN: (84730) : S -> 0x(61) at (0x7fffffffece0) -- Size = (4) 

-- ISN: (84731) : L from (0x7fffffffece0) -- of Size = (4) 

-- ISN: (84737) : L from (0x7fffffffece0) -- of Size = (4) 

-- ISN: (84738) : L from (0x7fffffffece0) -- of Size = (4) 

-- ISN: (84744) : L from (0x7fffffffece0) -- of Size = (4) 

-- ISN: (84747) : S -> 0x(62) at (0x7fffffffece0) -- Size = (4) 

-- ISN: (84761) : L from (0x7fffffffece0) -- of Size = (4) 

-- ISN: (84743) : S -> 0x(61) at (0x6bc5c4) -- Size = (4) 

-- ISN: (84748) : L from (0x7fffffffece0) -- of Size = (4) 

-- ISN: (84754) : L from (0x7fffffffece0) -- of Size = (4) 

-- ISN: (84755) : L from (0x7fffffffece0) -- of Size = (4) 

-- ISN: (84764) : S -> 0x(63) at (0x7fffffffece0) -- Size = (4) 

-- ISN: (84778) : L from (0x7fffffffece0) -- of Size = (4) 

-- ISN: (84765) : L from (0x7fffffffece0) -- of Size = (4) 

-- ISN: (84771) : L from (0x7fffffffece0) -- of Size = (4) 

-- ISN: (84772) : L from (0x7fffffffece0) -- of Size = (4) 

-- ISN: (84760) : S -> 0x(62) at (0x6bc5c8) -- Size = (4) 

-- ISN: (84781) : S -> 0x(64) at (0x7fffffffece0) -- Size = (4) 

-- ISN: (84782) : L from (0x7fffffffece0) -- of Size = (4) 

-- ISN: (84788) : L from (0x7fffffffece0) -- of Size = (4) 

-- ISN: (84789) : L from (0x7fffffffece0) -- of Size = (4) 

-- ISN: (84795) : L from (0x7fffffffece0) -- of Size = (4) 

-- ISN: (84777) : S -> 0x(63) at (0x6bc5cc) -- Size = (4) 

-- ISN: (84794) : S -> 0x(64) at (0x6bc5d0) -- Size = (4) 

-- ISN: (84798) : S -> 0x(65) at (0x7fffffffece0) -- Size = (4) 

-- Sqsh -> ISN (84787)

-- ISN: (84838) : L from (0x7fffffffece4) -- of Size = (4) 

-- ISN: (84834) : S -> 0x(0) at (0x7fffffffece4) -- Size = (4) 

-- ISN: (84845) : L from (0x7fffffffece4) -- of Size = (4) 

-- Sqsh -> ISN (84837)

-- ISN: (84898) : L from (0x7fffffffece4) -- of Size = (4) 

-- ISN: (84907) : S -> 0x(b6) at (0x7fffffffecd8) -- Size = (8) 

-- ISN: (84911) : S -> 0x(0) at (0x7fffffffece0) -- Size = (4) 

-- ISN: (84915) : L from (0x7fffffffece0) -- of Size = (4) 

-- ISN: (84919) : L from (0x7fffffffece0) -- of Size = (4) 

-- Sqsh -> ISN (84903)

-- ISN: (84965) : L from (0x7fffffffece4) -- of Size = (4) 

-- ISN: (84972) : L from (0x7fffffffece4) -- of Size = (4) 

-- ISN: (84969) : S -> 0x(9b) at (0x7fffffffecd8) -- Size = (8) 

-- ISN: (84976) : L from (0x7fffffffece4) -- of Size = (4) 

-- Sqsh -> ISN (84971)

-- ISN: (85035) : S -> 0x(f0) at (0x7fffffffecd0) -- Size = (8) 

-- ISN: (85038) : S -> 0x(0) at (0x7fffffffeccc) -- Size = (4) 

-- ISN: (85040) : L from (0x7fffffffeccc) -- of Size = (4) 

-- ISN: (85045) : L from (0x7fffffffeccc) -- of Size = (4) 

-- ISN: (85061) : L from (0x7fffffffecd0) -- of Size = (8) 

-- ISN: (85064) : L from (0x7fffffffecd8) -- of Size = (8) 

-- ISN: (85050) : L from (0x6bc440) -- of Size = (4) 

-- ISN: (85067) : L from (0x7fffffffece4) -- of Size = (4) 

-- ISN: (85071) : L from (0x7fffffffece4) -- of Size = (4) 

-- ISN: (85080) : S -> 0x(b6) at (0x7fffffffecd8) -- Size = (8) 

-- ISN: (85084) : S -> 0x(0) at (0x7fffffffece0) -- Size = (4) 

-- Sqsh -> ISN (85082)

-- ISN: (85054) : L from (0x6bc3c0) -- of Size = (1) 

-- ISN: (85070) : S -> 0x(1) at (0x7fffffffece4) -- Size = (4) 

-- Sqsh -> ISN (85070)

-- ISN: (85123) : L from (0x7fffffffece4) -- of Size = (4) 

-- ISN: (85132) : S -> 0x(b6) at (0x7fffffffecd8) -- Size = (8) 

-- ISN: (85135) : S -> 0x(f0) at (0x7fffffffecd0) -- Size = (8) 

-- Sqsh -> ISN (85128)

-- ISN: (85172) : L from (0x7fffffffece4) -- of Size = (4) 

-- ISN: (85179) : L from (0x7fffffffece4) -- of Size = (4) 

-- ISN: (85176) : S -> 0x(9b) at (0x7fffffffecd8) -- Size = (8) 

-- Sqsh -> ISN (85178)

-- ISN: (85242) : S -> 0x(f0) at (0x7fffffffecd0) -- Size = (8) 

-- ISN: (85245) : S -> 0x(1) at (0x7fffffffeccc) -- Size = (4) 

-- ISN: (85247) : L from (0x7fffffffeccc) -- of Size = (4) 

-- ISN: (85252) : L from (0x7fffffffeccc) -- of Size = (4) 

-- ISN: (85268) : L from (0x7fffffffecd0) -- of Size = (8) 

-- ISN: (85271) : L from (0x7fffffffecd8) -- of Size = (8) 

-- ISN: (85257) : L from (0x6bc444) -- of Size = (4) 

-- ISN: (85274) : L from (0x7fffffffece4) -- of Size = (4) 

-- ISN: (85287) : S -> 0x(b6) at (0x7fffffffecd8) -- Size = (8) 

-- ISN: (85291) : S -> 0x(0) at (0x7fffffffece0) -- Size = (4) 

-- Sqsh -> ISN (85289)

-- ISN: (85261) : L from (0x6bc3c1) -- of Size = (1) 

-- ISN: (85277) : S -> 0x(2) at (0x7fffffffece4) -- Size = (4) 

-- ISN: (85278) : L from (0x7fffffffece4) -- of Size = (4) 

-- Sqsh -> ISN (85283)

-- ISN: (85351) : L from (0x7fffffffece4) -- of Size = (4) 

-- ISN: (85358) : L from (0x7fffffffece4) -- of Size = (4) 

-- ISN: (85355) : S -> 0x(9b) at (0x7fffffffecd8) -- Size = (8) 

-- Sqsh -> ISN (85357)

-- ISN: (85411) : S -> 0x(f0) at (0x7fffffffecd0) -- Size = (8) 

-- ISN: (85059) : S -> 0x(0) at (0x6bc424) -- Size = (4) 

-- ISN: (85414) : S -> 0x(2) at (0x7fffffffeccc) -- Size = (4) 

-- ISN: (85416) : L from (0x7fffffffeccc) -- of Size = (4) 

-- ISN: (85266) : S -> 0x(0) at (0x6bc424) -- Size = (4) 

-- ISN: (85421) : L from (0x7fffffffeccc) -- of Size = (4) 

-- ISN: (85437) : L from (0x7fffffffecd0) -- of Size = (8) 

-- ISN: (85426) : L from (0x6bc448) -- of Size = (4) 

-- ISN: (85440) : L from (0x7fffffffecd8) -- of Size = (8) 

-- ISN: (85443) : L from (0x7fffffffece4) -- of Size = (4) 

-- ISN: (85456) : S -> 0x(b6) at (0x7fffffffecd8) -- Size = (8) 

-- ISN: (85464) : L from (0x7fffffffece0) -- of Size = (4) 

-- ISN: (85460) : S -> 0x(0) at (0x7fffffffece0) -- Size = (4) 

-- ISN: (85468) : L from (0x7fffffffece0) -- of Size = (4) 

-- Sqsh -> ISN (85458)

-- ISN: (85430) : L from (0x6bc3c2) -- of Size = (1) 

-- ISN: (85446) : S -> 0x(3) at (0x7fffffffece4) -- Size = (4) 

-- ISN: (85447) : L from (0x7fffffffece4) -- of Size = (4) 

-- ISN: (85435) : S -> 0x(0) at (0x6bc424) -- Size = (4) 

-- Sqsh -> ISN (85452)

-- ISN: (85553) : L from (0x7fffffffece4) -- of Size = (4) 

-- ISN: (85560) : L from (0x7fffffffece4) -- of Size = (4) 

-- ISN: (85557) : S -> 0x(9b) at (0x7fffffffecd8) -- Size = (8) 

-- Sqsh -> ISN (85559)

-- ISN: (85616) : S -> 0x(f0) at (0x7fffffffecd0) -- Size = (8) 

-- ISN: (85619) : S -> 0x(3) at (0x7fffffffeccc) -- Size = (4) 

-- ISN: (85621) : L from (0x7fffffffeccc) -- of Size = (4) 

-- ISN: (85626) : L from (0x7fffffffeccc) -- of Size = (4) 

-- ISN: (85642) : L from (0x7fffffffecd0) -- of Size = (8) 

-- ISN: (85645) : L from (0x7fffffffecd8) -- of Size = (8) 

-- ISN: (85631) : L from (0x6bc44c) -- of Size = (4) 

-- ISN: (85648) : L from (0x7fffffffece4) -- of Size = (4) 

-- ISN: (85661) : S -> 0x(b6) at (0x7fffffffecd8) -- Size = (8) 

-- ISN: (85665) : S -> 0x(0) at (0x7fffffffece0) -- Size = (4) 

-- Sqsh -> ISN (85663)

-- ISN: (85635) : L from (0x6bc3c3) -- of Size = (1) 

-- ISN: (85651) : S -> 0x(4) at (0x7fffffffece4) -- Size = (4) 

-- ISN: (85652) : L from (0x7fffffffece4) -- of Size = (4) 

-- Sqsh -> ISN (85657)

-- ISN: (85640) : S -> 0x(0) at (0x6bc424) -- Size = (4) 

-- ISN: (85725) : L from (0x7fffffffece4) -- of Size = (4) 

-- ISN: (85732) : L from (0x7fffffffece4) -- of Size = (4) 

-- ISN: (85729) : S -> 0x(9b) at (0x7fffffffecd8) -- Size = (8) 

-- Sqsh -> ISN (85731)

-- ISN: (85785) : S -> 0x(f0) at (0x7fffffffecd0) -- Size = (8) 

-- ISN: (85788) : S -> 0x(4) at (0x7fffffffeccc) -- Size = (4) 

-- ISN: (85790) : L from (0x7fffffffeccc) -- of Size = (4) 

-- ISN: (85795) : L from (0x7fffffffeccc) -- of Size = (4) 

-- ISN: (85811) : L from (0x7fffffffecd0) -- of Size = (8) 

-- ISN: (85814) : L from (0x7fffffffecd8) -- of Size = (8) 

-- ISN: (85800) : L from (0x6bc450) -- of Size = (4) 

-- ISN: (85817) : L from (0x7fffffffece4) -- of Size = (4) 

-- ISN: (85830) : S -> 0x(b6) at (0x7fffffffecd8) -- Size = (8) 

-- ISN: (85834) : S -> 0x(0) at (0x7fffffffece0) -- Size = (4) 

-- Sqsh -> ISN (85832)

-- ISN: (85804) : L from (0x6bc3c4) -- of Size = (1) 

-- ISN: (85820) : S -> 0x(5) at (0x7fffffffece4) -- Size = (4) 

-- ISN: (85821) : L from (0x7fffffffece4) -- of Size = (4) 

-- Sqsh -> ISN (85826)

-- ISN: (85809) : S -> 0x(0) at (0x6bc424) -- Size = (4) 

-- ISN: (85894) : L from (0x7fffffffece4) -- of Size = (4) 

-- ISN: (85901) : L from (0x7fffffffece4) -- of Size = (4) 

-- ISN: (85898) : S -> 0x(9b) at (0x7fffffffecd8) -- Size = (8) 

-- Sqsh -> ISN (85900)

-- ISN: (85954) : S -> 0x(f0) at (0x7fffffffecd0) -- Size = (8) 

-- ISN: (85957) : S -> 0x(5) at (0x7fffffffeccc) -- Size = (4) 

-- ISN: (85959) : L from (0x7fffffffeccc) -- of Size = (4) 

-- ISN: (85964) : L from (0x7fffffffeccc) -- of Size = (4) 

-- ISN: (85980) : L from (0x7fffffffecd0) -- of Size = (8) 

-- ISN: (85983) : L from (0x7fffffffecd8) -- of Size = (8) 

-- ISN: (85969) : L from (0x6bc454) -- of Size = (4) 

-- ISN: (85986) : L from (0x7fffffffece4) -- of Size = (4) 

-- ISN: (85999) : S -> 0x(b6) at (0x7fffffffecd8) -- Size = (8) 

-- ISN: (86003) : S -> 0x(0) at (0x7fffffffece0) -- Size = (4) 

-- Sqsh -> ISN (86001)

-- ISN: (85973) : L from (0x6bc3c5) -- of Size = (1) 

-- ISN: (85989) : S -> 0x(6) at (0x7fffffffece4) -- Size = (4) 

-- ISN: (85990) : L from (0x7fffffffece4) -- of Size = (4) 

-- Sqsh -> ISN (85995)

-- ISN: (85978) : S -> 0x(0) at (0x6bc424) -- Size = (4) 

-- ISN: (86063) : L from (0x7fffffffece4) -- of Size = (4) 

-- ISN: (86070) : L from (0x7fffffffece4) -- of Size = (4) 

-- ISN: (86067) : S -> 0x(9b) at (0x7fffffffecd8) -- Size = (8) 

-- Sqsh -> ISN (86069)

-- ISN: (86123) : S -> 0x(f0) at (0x7fffffffecd0) -- Size = (8) 

-- ISN: (86126) : S -> 0x(6) at (0x7fffffffeccc) -- Size = (4) 

-- ISN: (86128) : L from (0x7fffffffeccc) -- of Size = (4) 

-- ISN: (86133) : L from (0x7fffffffeccc) -- of Size = (4) 

-- ISN: (86149) : L from (0x7fffffffecd0) -- of Size = (8) 

-- ISN: (86152) : L from (0x7fffffffecd8) -- of Size = (8) 

-- ISN: (86138) : L from (0x6bc458) -- of Size = (4) 

-- ISN: (86155) : L from (0x7fffffffece4) -- of Size = (4) 

-- ISN: (86168) : S -> 0x(b6) at (0x7fffffffecd8) -- Size = (8) 

-- ISN: (86172) : S -> 0x(0) at (0x7fffffffece0) -- Size = (4) 

-- Sqsh -> ISN (86170)

-- ISN: (86142) : L from (0x6bc3c6) -- of Size = (1) 

-- ISN: (86158) : S -> 0x(7) at (0x7fffffffece4) -- Size = (4) 

-- ISN: (86159) : L from (0x7fffffffece4) -- of Size = (4) 

-- ISN: (86147) : S -> 0x(0) at (0x6bc424) -- Size = (4) 

-- Sqsh -> ISN (86164)

-- ISN: (86232) : L from (0x7fffffffece4) -- of Size = (4) 

-- ISN: (86239) : L from (0x7fffffffece4) -- of Size = (4) 

-- ISN: (86236) : S -> 0x(9b) at (0x7fffffffecd8) -- Size = (8) 

-- Sqsh -> ISN (86238)

-- ISN: (86292) : S -> 0x(f0) at (0x7fffffffecd0) -- Size = (8) 

-- ISN: (86295) : S -> 0x(7) at (0x7fffffffeccc) -- Size = (4) 

-- ISN: (86297) : L from (0x7fffffffeccc) -- of Size = (4) 

-- ISN: (86302) : L from (0x7fffffffeccc) -- of Size = (4) 

-- ISN: (86318) : L from (0x7fffffffecd0) -- of Size = (8) 

-- ISN: (86321) : L from (0x7fffffffecd8) -- of Size = (8) 

-- ISN: (86307) : L from (0x6bc45c) -- of Size = (4) 

-- ISN: (86324) : L from (0x7fffffffece4) -- of Size = (4) 

-- ISN: (86338) : S -> 0x(9b) at (0x7fffffffecd8) -- Size = (8) 

-- ISN: (86311) : L from (0x6bc3c7) -- of Size = (1) 

-- ISN: (86341) : S -> 0x(f0) at (0x7fffffffecd0) -- Size = (8) 

-- ISN: (86327) : S -> 0x(8) at (0x7fffffffece4) -- Size = (4) 

-- ISN: (86328) : L from (0x7fffffffece4) -- of Size = (4) 

-- ISN: (86334) : L from (0x7fffffffece4) -- of Size = (4) 

-- ISN: (86346) : L from (0x7fffffffeccc) -- of Size = (4) 

-- ISN: (86351) : L from (0x7fffffffeccc) -- of Size = (4) 

-- ISN: (86367) : L from (0x7fffffffecd0) -- of Size = (8) 

-- ISN: (86344) : S -> 0x(8) at (0x7fffffffeccc) -- Size = (4) 

-- ISN: (86370) : L from (0x7fffffffecd8) -- of Size = (8) 

-- ISN: (86316) : S -> 0x(0) at (0x6bc424) -- Size = (4) 

-- Sqsh -> ISN (86345)

-- ISN: (86398) : L from (0x7fffffffeccc) -- of Size = (4) 

-- ISN: (86403) : L from (0x7fffffffeccc) -- of Size = (4) 

-- ISN: (86408) : L from (0x6bc460) -- of Size = (4) 

-- ISN: (86419) : L from (0x7fffffffecd0) -- of Size = (8) 

-- ISN: (86422) : L from (0x7fffffffecd8) -- of Size = (8) 

-- ISN: (86412) : L from (0x6bc3c8) -- of Size = (1) 

-- ISN: (86439) : S -> 0x(9b) at (0x7fffffffecd8) -- Size = (8) 

-- ISN: (86425) : L from (0x7fffffffece4) -- of Size = (4) 

-- ISN: (86442) : S -> 0x(f0) at (0x7fffffffecd0) -- Size = (8) 

-- ISN: (86452) : L from (0x7fffffffeccc) -- of Size = (4) 

-- ISN: (86468) : L from (0x7fffffffecd0) -- of Size = (8) 

-- ISN: (86428) : S -> 0x(9) at (0x7fffffffece4) -- Size = (4) 

-- ISN: (86471) : L from (0x7fffffffecd8) -- of Size = (8) 

-- ISN: (86417) : S -> 0x(0) at (0x6bc424) -- Size = (4) 

-- ISN: (86429) : L from (0x7fffffffece4) -- of Size = (4) 

-- ISN: (86435) : L from (0x7fffffffece4) -- of Size = (4) 

-- ISN: (86457) : L from (0x6bc460) -- of Size = (4) 

-- ISN: (86474) : L from (0x7fffffffece4) -- of Size = (4) 

-- ISN: (86445) : S -> 0x(9) at (0x7fffffffeccc) -- Size = (4) 

-- ISN: (86447) : L from (0x7fffffffeccc) -- of Size = (4) 

-- ISN: (86477) : S -> 0x(a) at (0x7fffffffece4) -- Size = (4) 

-- ISN: (86488) : S -> 0x(9b) at (0x7fffffffecd8) -- Size = (8) 

-- Sqsh -> ISN (86451)

-- ISN: (86520) : L from (0x7fffffffeccc) -- of Size = (4) 

-- ISN: (86536) : L from (0x7fffffffecd0) -- of Size = (8) 

-- ISN: (86525) : L from (0x6bc464) -- of Size = (4) 

-- ISN: (86539) : L from (0x7fffffffecd8) -- of Size = (8) 

-- ISN: (86556) : S -> 0x(9b) at (0x7fffffffecd8) -- Size = (8) 

-- ISN: (86542) : L from (0x7fffffffece4) -- of Size = (4) 

-- ISN: (86559) : S -> 0x(f0) at (0x7fffffffecd0) -- Size = (8) 

-- ISN: (86529) : L from (0x6bc3c9) -- of Size = (1) 

-- ISN: (86585) : L from (0x7fffffffecd0) -- of Size = (8) 

-- ISN: (86545) : S -> 0x(a) at (0x7fffffffece4) -- Size = (4) 

-- ISN: (86588) : L from (0x7fffffffecd8) -- of Size = (8) 

-- ISN: (86546) : L from (0x7fffffffece4) -- of Size = (4) 

-- ISN: (86552) : L from (0x7fffffffece4) -- of Size = (4) 

-- ISN: (86591) : L from (0x7fffffffece4) -- of Size = (4) 

-- ISN: (86534) : S -> 0x(0) at (0x6bc424) -- Size = (4) 

-- ISN: (86562) : S -> 0x(a) at (0x7fffffffeccc) -- Size = (4) 

-- ISN: (86564) : L from (0x7fffffffeccc) -- of Size = (4) 

-- ISN: (86569) : L from (0x7fffffffeccc) -- of Size = (4) 

-- ISN: (86594) : S -> 0x(b) at (0x7fffffffece4) -- Size = (4) 

-- ISN: (86605) : S -> 0x(9b) at (0x7fffffffecd8) -- Size = (8) 

-- ISN: (86595) : L from (0x7fffffffece4) -- of Size = (4) 

-- ISN: (86601) : L from (0x7fffffffece4) -- of Size = (4) 

-- ISN: (86608) : S -> 0x(f0) at (0x7fffffffecd0) -- Size = (8) 

-- ISN: (86574) : L from (0x6bc468) -- of Size = (4) 

-- ISN: (86611) : S -> 0x(b) at (0x7fffffffeccc) -- Size = (4) 

-- ISN: (86613) : L from (0x7fffffffeccc) -- of Size = (4) 

-- ISN: (86618) : L from (0x7fffffffeccc) -- of Size = (4) 

-- ISN: (86634) : L from (0x7fffffffecd0) -- of Size = (8) 

-- ISN: (86637) : L from (0x7fffffffecd8) -- of Size = (8) 

-- ISN: (86578) : L from (0x6bc3ca) -- of Size = (1) 

-- ISN: (86640) : L from (0x7fffffffece4) -- of Size = (4) 

-- ISN: (86623) : L from (0x6bc46c) -- of Size = (4) 

-- ISN: (86643) : S -> 0x(c) at (0x7fffffffece4) -- Size = (4) 

-- ISN: (86654) : S -> 0x(9b) at (0x7fffffffecd8) -- Size = (8) 

-- ISN: (86644) : L from (0x7fffffffece4) -- of Size = (4) 

-- ISN: (86650) : L from (0x7fffffffece4) -- of Size = (4) 

-- ISN: (86657) : S -> 0x(f0) at (0x7fffffffecd0) -- Size = (8) 

-- ISN: (86627) : L from (0x6bc3cb) -- of Size = (1) 

-- ISN: (86583) : S -> 0x(0) at (0x6bc424) -- Size = (4) 

-- ISN: (86660) : S -> 0x(c) at (0x7fffffffeccc) -- Size = (4) 

-- ISN: (86662) : L from (0x7fffffffeccc) -- of Size = (4) 

-- ISN: (86667) : L from (0x7fffffffeccc) -- of Size = (4) 

-- ISN: (86683) : L from (0x7fffffffecd0) -- of Size = (8) 

-- ISN: (86686) : L from (0x7fffffffecd8) -- of Size = (8) 

-- ISN: (86632) : S -> 0x(0) at (0x6bc424) -- Size = (4) 

-- ISN: (86689) : L from (0x7fffffffece4) -- of Size = (4) 

-- ISN: (86672) : L from (0x6bc470) -- of Size = (4) 

-- ISN: (86692) : S -> 0x(d) at (0x7fffffffece4) -- Size = (4) 

-- ISN: (86703) : S -> 0x(9b) at (0x7fffffffecd8) -- Size = (8) 

-- ISN: (86693) : L from (0x7fffffffece4) -- of Size = (4) 

-- ISN: (86699) : L from (0x7fffffffece4) -- of Size = (4) 

-- ISN: (86706) : S -> 0x(f0) at (0x7fffffffecd0) -- Size = (8) 

-- ISN: (86676) : L from (0x6bc3cc) -- of Size = (1) 

-- ISN: (86709) : S -> 0x(d) at (0x7fffffffeccc) -- Size = (4) 

-- ISN: (86711) : L from (0x7fffffffeccc) -- of Size = (4) 

-- ISN: (86716) : L from (0x7fffffffeccc) -- of Size = (4) 

-- ISN: (86732) : L from (0x7fffffffecd0) -- of Size = (8) 

-- ISN: (86735) : L from (0x7fffffffecd8) -- of Size = (8) 

-- ISN: (86681) : S -> 0x(0) at (0x6bc424) -- Size = (4) 

-- ISN: (86738) : L from (0x7fffffffece4) -- of Size = (4) 

-- ISN: (86721) : L from (0x6bc474) -- of Size = (4) 

-- ISN: (86751) : S -> 0x(b6) at (0x7fffffffecd8) -- Size = (8) 

-- ISN: (86741) : S -> 0x(e) at (0x7fffffffece4) -- Size = (4) 

-- ISN: (86755) : S -> 0x(0) at (0x7fffffffece0) -- Size = (4) 

-- Sqsh -> ISN (86753)

-- ISN: (86742) : L from (0x7fffffffece4) -- of Size = (4) 

-- ISN: (86725) : L from (0x6bc3cd) -- of Size = (1) 

-- Sqsh -> ISN (86747)

-- ISN: (86730) : S -> 0x(0) at (0x6bc424) -- Size = (4) 

-- ISN: (86810) : L from (0x7fffffffece4) -- of Size = (4) 

-- ISN: (86817) : L from (0x7fffffffece4) -- of Size = (4) 

-- ISN: (86814) : S -> 0x(9b) at (0x7fffffffecd8) -- Size = (8) 

-- Sqsh -> ISN (86816)

-- ISN: (86870) : S -> 0x(f0) at (0x7fffffffecd0) -- Size = (8) 

-- ISN: (86873) : S -> 0x(e) at (0x7fffffffeccc) -- Size = (4) 

-- ISN: (86875) : L from (0x7fffffffeccc) -- of Size = (4) 

-- ISN: (86880) : L from (0x7fffffffeccc) -- of Size = (4) 

-- ISN: (86896) : L from (0x7fffffffecd0) -- of Size = (8) 

-- ISN: (86899) : L from (0x7fffffffecd8) -- of Size = (8) 

-- ISN: (86885) : L from (0x6bc478) -- of Size = (4) 

-- ISN: (86902) : L from (0x7fffffffece4) -- of Size = (4) 

-- ISN: (86915) : S -> 0x(b6) at (0x7fffffffecd8) -- Size = (8) 

-- ISN: (86918) : S -> 0x(f0) at (0x7fffffffecd0) -- Size = (8) 

-- ISN: (86889) : L from (0x6bc3ce) -- of Size = (1) 

-- ISN: (86921) : S -> 0x(69) at (0x7fffffffeccc) -- Size = (4) 

-- ISN: (86905) : S -> 0x(f) at (0x7fffffffece4) -- Size = (4) 

-- ISN: (86923) : L from (0x7fffffffeccc) -- of Size = (4) 

-- ISN: (86928) : L from (0x7fffffffeccc) -- of Size = (4) 

-- ISN: (86906) : L from (0x7fffffffece4) -- of Size = (4) 

-- ISN: (86944) : L from (0x7fffffffecd0) -- of Size = (8) 

-- ISN: (86947) : L from (0x7fffffffecd8) -- of Size = (8) 

-- ISN: (86933) : L from (0x6bc5e4) -- of Size = (4) 

-- Sqsh -> ISN (86927)

-- ISN: (86894) : S -> 0x(0) at (0x6bc424) -- Size = (4) 

-- Sqsh -> ISN (86911)

-- ISN: (86987) : L from (0x7fffffffece4) -- of Size = (4) 

-- ISN: (86991) : S -> 0x(9b) at (0x7fffffffecd8) -- Size = (8) 

-- ISN: (86994) : S -> 0x(f0) at (0x7fffffffecd0) -- Size = (8) 

-- ISN: (86997) : S -> 0x(f) at (0x7fffffffeccc) -- Size = (4) 

-- ISN: (86999) : L from (0x7fffffffeccc) -- of Size = (4) 

-- ISN: (87004) : L from (0x7fffffffeccc) -- of Size = (4) 

-- ISN: (87020) : L from (0x7fffffffecd0) -- of Size = (8) 

-- ISN: (87023) : L from (0x7fffffffecd8) -- of Size = (8) 

-- ISN: (87026) : L from (0x7fffffffece4) -- of Size = (4) 

-- ISN: (87009) : L from (0x6bc47c) -- of Size = (4) 

-- ISN: (87039) : S -> 0x(b6) at (0x7fffffffecd8) -- Size = (8) 

-- ISN: (87051) : L from (0x7fffffffece0) -- of Size = (4) 

-- ISN: (87043) : S -> 0x(0) at (0x7fffffffece0) -- Size = (4) 

-- Sqsh -> ISN (87041)

-- ISN: (87029) : S -> 0x(10) at (0x7fffffffece4) -- Size = (4) 

-- ISN: (87013) : L from (0x6bc3cf) -- of Size = (1) 

-- ISN: (87030) : L from (0x7fffffffece4) -- of Size = (4) 

-- Sqsh -> ISN (87035)

-- ISN: (87018) : S -> 0x(0) at (0x6bc424) -- Size = (4) 

-- ISN: (87118) : L from (0x7fffffffece4) -- of Size = (4) 

-- ISN: (87125) : L from (0x7fffffffece4) -- of Size = (4) 

-- ISN: (87122) : S -> 0x(9b) at (0x7fffffffecd8) -- Size = (8) 

-- Sqsh -> ISN (87124)

-- ISN: (87188) : S -> 0x(f0) at (0x7fffffffecd0) -- Size = (8) 

-- ISN: (87191) : S -> 0x(10) at (0x7fffffffeccc) -- Size = (4) 

-- ISN: (87193) : L from (0x7fffffffeccc) -- of Size = (4) 

-- ISN: (87198) : L from (0x7fffffffeccc) -- of Size = (4) 

-- ISN: (87214) : L from (0x7fffffffecd0) -- of Size = (8) 

-- ISN: (87217) : L from (0x7fffffffecd8) -- of Size = (8) 

-- ISN: (87203) : L from (0x6bc480) -- of Size = (4) 

-- ISN: (87220) : L from (0x7fffffffece4) -- of Size = (4) 

-- ISN: (87234) : S -> 0x(9b) at (0x7fffffffecd8) -- Size = (8) 

-- ISN: (87237) : S -> 0x(f0) at (0x7fffffffecd0) -- Size = (8) 

-- ISN: (87207) : L from (0x6bc3d0) -- of Size = (1) 

-- ISN: (87223) : S -> 0x(11) at (0x7fffffffece4) -- Size = (4) 

-- ISN: (87224) : L from (0x7fffffffece4) -- of Size = (4) 

-- ISN: (87230) : L from (0x7fffffffece4) -- of Size = (4) 

-- ISN: (87263) : L from (0x7fffffffecd0) -- of Size = (8) 

-- ISN: (87266) : L from (0x7fffffffecd8) -- of Size = (8) 

-- ISN: (87240) : S -> 0x(11) at (0x7fffffffeccc) -- Size = (4) 

-- ISN: (87212) : S -> 0x(0) at (0x6bc424) -- Size = (4) 

-- ISN: (87242) : L from (0x7fffffffeccc) -- of Size = (4) 

-- ISN: (87247) : L from (0x7fffffffeccc) -- of Size = (4) 

-- ISN: (87269) : L from (0x7fffffffece4) -- of Size = (4) 

-- ISN: (87272) : S -> 0x(12) at (0x7fffffffece4) -- Size = (4) 

-- ISN: (87283) : S -> 0x(9b) at (0x7fffffffecd8) -- Size = (8) 

-- ISN: (87252) : L from (0x6bc484) -- of Size = (4) 

-- ISN: (87273) : L from (0x7fffffffece4) -- of Size = (4) 

-- ISN: (87279) : L from (0x7fffffffece4) -- of Size = (4) 

-- ISN: (87286) : S -> 0x(f0) at (0x7fffffffecd0) -- Size = (8) 

-- ISN: (87289) : S -> 0x(12) at (0x7fffffffeccc) -- Size = (4) 

-- ISN: (87256) : L from (0x6bc3d1) -- of Size = (1) 

-- ISN: (87291) : L from (0x7fffffffeccc) -- of Size = (4) 

-- ISN: (87296) : L from (0x7fffffffeccc) -- of Size = (4) 

-- ISN: (87312) : L from (0x7fffffffecd0) -- of Size = (8) 

-- ISN: (87315) : L from (0x7fffffffecd8) -- of Size = (8) 

-- ISN: (87318) : L from (0x7fffffffece4) -- of Size = (4) 

-- ISN: (87301) : L from (0x6bc488) -- of Size = (4) 

-- ISN: (87261) : S -> 0x(0) at (0x6bc424) -- Size = (4) 

-- ISN: (87321) : S -> 0x(13) at (0x7fffffffece4) -- Size = (4) 

-- ISN: (87332) : S -> 0x(9b) at (0x7fffffffecd8) -- Size = (8) 

-- ISN: (87322) : L from (0x7fffffffece4) -- of Size = (4) 

-- ISN: (87328) : L from (0x7fffffffece4) -- of Size = (4) 

-- ISN: (87335) : S -> 0x(f0) at (0x7fffffffecd0) -- Size = (8) 

-- ISN: (87305) : L from (0x6bc3d2) -- of Size = (1) 

-- ISN: (87338) : S -> 0x(13) at (0x7fffffffeccc) -- Size = (4) 

-- ISN: (87340) : L from (0x7fffffffeccc) -- of Size = (4) 

-- ISN: (87345) : L from (0x7fffffffeccc) -- of Size = (4) 

-- ISN: (87361) : L from (0x7fffffffecd0) -- of Size = (8) 

-- ISN: (87364) : L from (0x7fffffffecd8) -- of Size = (8) 

-- ISN: (87310) : S -> 0x(0) at (0x6bc424) -- Size = (4) 

-- ISN: (87367) : L from (0x7fffffffece4) -- of Size = (4) 

-- ISN: (87350) : L from (0x6bc48c) -- of Size = (4) 

-- ISN: (87370) : S -> 0x(14) at (0x7fffffffece4) -- Size = (4) 

-- ISN: (87381) : S -> 0x(9b) at (0x7fffffffecd8) -- Size = (8) 

-- ISN: (87371) : L from (0x7fffffffece4) -- of Size = (4) 

-- ISN: (87377) : L from (0x7fffffffece4) -- of Size = (4) 

-- ISN: (87384) : S -> 0x(f0) at (0x7fffffffecd0) -- Size = (8) 

-- ISN: (87354) : L from (0x6bc3d3) -- of Size = (1) 

-- ISN: (87387) : S -> 0x(14) at (0x7fffffffeccc) -- Size = (4) 

-- ISN: (87389) : L from (0x7fffffffeccc) -- of Size = (4) 

-- ISN: (87394) : L from (0x7fffffffeccc) -- of Size = (4) 

-- ISN: (87410) : L from (0x7fffffffecd0) -- of Size = (8) 

-- ISN: (87413) : L from (0x7fffffffecd8) -- of Size = (8) 

-- ISN: (87359) : S -> 0x(0) at (0x6bc424) -- Size = (4) 

-- ISN: (87416) : L from (0x7fffffffece4) -- of Size = (4) 

-- ISN: (87399) : L from (0x6bc490) -- of Size = (4) 

-- ISN: (87419) : S -> 0x(15) at (0x7fffffffece4) -- Size = (4) 

-- ISN: (87430) : S -> 0x(9b) at (0x7fffffffecd8) -- Size = (8) 

-- ISN: (87420) : L from (0x7fffffffece4) -- of Size = (4) 

-- ISN: (87426) : L from (0x7fffffffece4) -- of Size = (4) 

-- ISN: (87433) : S -> 0x(f0) at (0x7fffffffecd0) -- Size = (8) 

-- ISN: (87403) : L from (0x6bc3d4) -- of Size = (1) 

-- ISN: (87436) : S -> 0x(15) at (0x7fffffffeccc) -- Size = (4) 

-- ISN: (87438) : L from (0x7fffffffeccc) -- of Size = (4) 

-- ISN: (87443) : L from (0x7fffffffeccc) -- of Size = (4) 

-- ISN: (87459) : L from (0x7fffffffecd0) -- of Size = (8) 

-- ISN: (87462) : L from (0x7fffffffecd8) -- of Size = (8) 

-- ISN: (87408) : S -> 0x(0) at (0x6bc424) -- Size = (4) 

-- ISN: (87465) : L from (0x7fffffffece4) -- of Size = (4) 

-- ISN: (87448) : L from (0x6bc494) -- of Size = (4) 

-- ISN: (87468) : S -> 0x(16) at (0x7fffffffece4) -- Size = (4) 

-- ISN: (87479) : S -> 0x(9b) at (0x7fffffffecd8) -- Size = (8) 

-- ISN: (87469) : L from (0x7fffffffece4) -- of Size = (4) 

-- ISN: (87475) : L from (0x7fffffffece4) -- of Size = (4) 

-- ISN: (87482) : S -> 0x(f0) at (0x7fffffffecd0) -- Size = (8) 

-- ISN: (87452) : L from (0x6bc3d5) -- of Size = (1) 

-- ISN: (87485) : S -> 0x(16) at (0x7fffffffeccc) -- Size = (4) 

-- ISN: (87487) : L from (0x7fffffffeccc) -- of Size = (4) 

-- ISN: (87492) : L from (0x7fffffffeccc) -- of Size = (4) 

-- ISN: (87508) : L from (0x7fffffffecd0) -- of Size = (8) 

-- ISN: (87511) : L from (0x7fffffffecd8) -- of Size = (8) 

-- ISN: (87457) : S -> 0x(0) at (0x6bc424) -- Size = (4) 

-- ISN: (87514) : L from (0x7fffffffece4) -- of Size = (4) 

-- ISN: (87497) : L from (0x6bc498) -- of Size = (4) 

-- ISN: (87517) : S -> 0x(17) at (0x7fffffffece4) -- Size = (4) 

-- ISN: (87528) : S -> 0x(9b) at (0x7fffffffecd8) -- Size = (8) 

-- ISN: (87518) : L from (0x7fffffffece4) -- of Size = (4) 

-- ISN: (87524) : L from (0x7fffffffece4) -- of Size = (4) 

-- ISN: (87531) : S -> 0x(f0) at (0x7fffffffecd0) -- Size = (8) 

-- ISN: (87501) : L from (0x6bc3d6) -- of Size = (1) 

-- ISN: (87534) : S -> 0x(17) at (0x7fffffffeccc) -- Size = (4) 

-- ISN: (87536) : L from (0x7fffffffeccc) -- of Size = (4) 

-- ISN: (87541) : L from (0x7fffffffeccc) -- of Size = (4) 

-- ISN: (87557) : L from (0x7fffffffecd0) -- of Size = (8) 

-- ISN: (87560) : L from (0x7fffffffecd8) -- of Size = (8) 

-- ISN: (87506) : S -> 0x(0) at (0x6bc424) -- Size = (4) 

-- ISN: (87563) : L from (0x7fffffffece4) -- of Size = (4) 

-- ISN: (87546) : L from (0x6bc49c) -- of Size = (4) 

-- ISN: (87566) : S -> 0x(18) at (0x7fffffffece4) -- Size = (4) 

-- ISN: (87577) : S -> 0x(9b) at (0x7fffffffecd8) -- Size = (8) 

-- ISN: (87567) : L from (0x7fffffffece4) -- of Size = (4) 

-- ISN: (87573) : L from (0x7fffffffece4) -- of Size = (4) 

-- ISN: (87580) : S -> 0x(f0) at (0x7fffffffecd0) -- Size = (8) 

-- ISN: (87550) : L from (0x6bc3d7) -- of Size = (1) 

-- ISN: (87583) : S -> 0x(18) at (0x7fffffffeccc) -- Size = (4) 

-- ISN: (87585) : L from (0x7fffffffeccc) -- of Size = (4) 

-- ISN: (87590) : L from (0x7fffffffeccc) -- of Size = (4) 

-- ISN: (87606) : L from (0x7fffffffecd0) -- of Size = (8) 

-- ISN: (87609) : L from (0x7fffffffecd8) -- of Size = (8) 

-- ISN: (87555) : S -> 0x(0) at (0x6bc424) -- Size = (4) 

-- ISN: (87612) : L from (0x7fffffffece4) -- of Size = (4) 

-- ISN: (87595) : L from (0x6bc4a0) -- of Size = (4) 

-- ISN: (87615) : S -> 0x(19) at (0x7fffffffece4) -- Size = (4) 

-- ISN: (87626) : S -> 0x(9b) at (0x7fffffffecd8) -- Size = (8) 

-- ISN: (87616) : L from (0x7fffffffece4) -- of Size = (4) 

-- ISN: (87622) : L from (0x7fffffffece4) -- of Size = (4) 

-- ISN: (87629) : S -> 0x(f0) at (0x7fffffffecd0) -- Size = (8) 

-- ISN: (87599) : L from (0x6bc3d8) -- of Size = (1) 

-- ISN: (87632) : S -> 0x(19) at (0x7fffffffeccc) -- Size = (4) 

-- ISN: (87634) : L from (0x7fffffffeccc) -- of Size = (4) 

-- ISN: (87639) : L from (0x7fffffffeccc) -- of Size = (4) 

-- ISN: (87655) : L from (0x7fffffffecd0) -- of Size = (8) 

-- ISN: (87658) : L from (0x7fffffffecd8) -- of Size = (8) 

-- ISN: (87604) : S -> 0x(0) at (0x6bc424) -- Size = (4) 

-- ISN: (87661) : L from (0x7fffffffece4) -- of Size = (4) 

-- ISN: (87644) : L from (0x6bc4a4) -- of Size = (4) 

-- ISN: (87664) : S -> 0x(1a) at (0x7fffffffece4) -- Size = (4) 

-- ISN: (87675) : S -> 0x(9b) at (0x7fffffffecd8) -- Size = (8) 

-- ISN: (87665) : L from (0x7fffffffece4) -- of Size = (4) 

-- ISN: (87671) : L from (0x7fffffffece4) -- of Size = (4) 

-- ISN: (87678) : S -> 0x(f0) at (0x7fffffffecd0) -- Size = (8) 

-- ISN: (87648) : L from (0x6bc3d9) -- of Size = (1) 

-- ISN: (87681) : S -> 0x(1a) at (0x7fffffffeccc) -- Size = (4) 

-- ISN: (87683) : L from (0x7fffffffeccc) -- of Size = (4) 

-- ISN: (87688) : L from (0x7fffffffeccc) -- of Size = (4) 

-- ISN: (87704) : L from (0x7fffffffecd0) -- of Size = (8) 

-- ISN: (87707) : L from (0x7fffffffecd8) -- of Size = (8) 

-- ISN: (87653) : S -> 0x(0) at (0x6bc424) -- Size = (4) 

-- ISN: (87710) : L from (0x7fffffffece4) -- of Size = (4) 

-- ISN: (87693) : L from (0x6bc4a8) -- of Size = (4) 

-- ISN: (87713) : S -> 0x(1b) at (0x7fffffffece4) -- Size = (4) 

-- ISN: (87724) : S -> 0x(9b) at (0x7fffffffecd8) -- Size = (8) 

-- ISN: (87714) : L from (0x7fffffffece4) -- of Size = (4) 

-- ISN: (87720) : L from (0x7fffffffece4) -- of Size = (4) 

-- ISN: (87727) : S -> 0x(f0) at (0x7fffffffecd0) -- Size = (8) 

-- ISN: (87697) : L from (0x6bc3da) -- of Size = (1) 

-- ISN: (87730) : S -> 0x(1b) at (0x7fffffffeccc) -- Size = (4) 

-- ISN: (87732) : L from (0x7fffffffeccc) -- of Size = (4) 

-- ISN: (87737) : L from (0x7fffffffeccc) -- of Size = (4) 

-- ISN: (87753) : L from (0x7fffffffecd0) -- of Size = (8) 

-- ISN: (87756) : L from (0x7fffffffecd8) -- of Size = (8) 

-- ISN: (87702) : S -> 0x(0) at (0x6bc424) -- Size = (4) 

-- ISN: (87759) : L from (0x7fffffffece4) -- of Size = (4) 

-- ISN: (87742) : L from (0x6bc4ac) -- of Size = (4) 

-- ISN: (87762) : S -> 0x(1c) at (0x7fffffffece4) -- Size = (4) 

-- ISN: (87773) : S -> 0x(9b) at (0x7fffffffecd8) -- Size = (8) 

-- ISN: (87763) : L from (0x7fffffffece4) -- of Size = (4) 

-- ISN: (87769) : L from (0x7fffffffece4) -- of Size = (4) 

-- ISN: (87776) : S -> 0x(f0) at (0x7fffffffecd0) -- Size = (8) 

-- ISN: (87746) : L from (0x6bc3db) -- of Size = (1) 

-- ISN: (87779) : S -> 0x(1c) at (0x7fffffffeccc) -- Size = (4) 

-- ISN: (87781) : L from (0x7fffffffeccc) -- of Size = (4) 

-- ISN: (87786) : L from (0x7fffffffeccc) -- of Size = (4) 

-- ISN: (87802) : L from (0x7fffffffecd0) -- of Size = (8) 

-- ISN: (87805) : L from (0x7fffffffecd8) -- of Size = (8) 

-- ISN: (87751) : S -> 0x(0) at (0x6bc424) -- Size = (4) 

-- ISN: (87808) : L from (0x7fffffffece4) -- of Size = (4) 

-- ISN: (87791) : L from (0x6bc4b0) -- of Size = (4) 

-- ISN: (87811) : S -> 0x(1d) at (0x7fffffffece4) -- Size = (4) 

-- ISN: (87822) : S -> 0x(9b) at (0x7fffffffecd8) -- Size = (8) 

-- ISN: (87812) : L from (0x7fffffffece4) -- of Size = (4) 

-- ISN: (87818) : L from (0x7fffffffece4) -- of Size = (4) 

-- ISN: (87825) : S -> 0x(f0) at (0x7fffffffecd0) -- Size = (8) 

-- ISN: (87795) : L from (0x6bc3dc) -- of Size = (1) 

-- ISN: (87828) : S -> 0x(1d) at (0x7fffffffeccc) -- Size = (4) 

-- ISN: (87830) : L from (0x7fffffffeccc) -- of Size = (4) 

-- ISN: (87835) : L from (0x7fffffffeccc) -- of Size = (4) 

-- ISN: (87851) : L from (0x7fffffffecd0) -- of Size = (8) 

-- ISN: (87854) : L from (0x7fffffffecd8) -- of Size = (8) 

-- ISN: (87800) : S -> 0x(0) at (0x6bc424) -- Size = (4) 

-- ISN: (87857) : L from (0x7fffffffece4) -- of Size = (4) 

-- ISN: (87840) : L from (0x6bc4b4) -- of Size = (4) 

-- ISN: (87860) : S -> 0x(1e) at (0x7fffffffece4) -- Size = (4) 

-- ISN: (87871) : S -> 0x(9b) at (0x7fffffffecd8) -- Size = (8) 

-- ISN: (87861) : L from (0x7fffffffece4) -- of Size = (4) 

-- ISN: (87867) : L from (0x7fffffffece4) -- of Size = (4) 

-- ISN: (87874) : S -> 0x(f0) at (0x7fffffffecd0) -- Size = (8) 

-- ISN: (87844) : L from (0x6bc3dd) -- of Size = (1) 

-- ISN: (87877) : S -> 0x(1e) at (0x7fffffffeccc) -- Size = (4) 

-- ISN: (87879) : L from (0x7fffffffeccc) -- of Size = (4) 

-- ISN: (87884) : L from (0x7fffffffeccc) -- of Size = (4) 

-- ISN: (87900) : L from (0x7fffffffecd0) -- of Size = (8) 

-- ISN: (87903) : L from (0x7fffffffecd8) -- of Size = (8) 

-- ISN: (87849) : S -> 0x(0) at (0x6bc424) -- Size = (4) 

-- ISN: (87906) : L from (0x7fffffffece4) -- of Size = (4) 

-- ISN: (87889) : L from (0x6bc4b8) -- of Size = (4) 

-- ISN: (87909) : S -> 0x(1f) at (0x7fffffffece4) -- Size = (4) 

-- ISN: (87920) : S -> 0x(9b) at (0x7fffffffecd8) -- Size = (8) 

-- ISN: (87910) : L from (0x7fffffffece4) -- of Size = (4) 

-- ISN: (87916) : L from (0x7fffffffece4) -- of Size = (4) 

-- ISN: (87923) : S -> 0x(f0) at (0x7fffffffecd0) -- Size = (8) 

-- ISN: (87893) : L from (0x6bc3de) -- of Size = (1) 

-- ISN: (87926) : S -> 0x(1f) at (0x7fffffffeccc) -- Size = (4) 

-- ISN: (87928) : L from (0x7fffffffeccc) -- of Size = (4) 

-- ISN: (87933) : L from (0x7fffffffeccc) -- of Size = (4) 

-- ISN: (87949) : L from (0x7fffffffecd0) -- of Size = (8) 

-- ISN: (87952) : L from (0x7fffffffecd8) -- of Size = (8) 

-- ISN: (87898) : S -> 0x(0) at (0x6bc424) -- Size = (4) 

-- ISN: (87955) : L from (0x7fffffffece4) -- of Size = (4) 

-- ISN: (87938) : L from (0x6bc4bc) -- of Size = (4) 

-- ISN: (87958) : S -> 0x(20) at (0x7fffffffece4) -- Size = (4) 

-- ISN: (87969) : S -> 0x(9b) at (0x7fffffffecd8) -- Size = (8) 

-- ISN: (87959) : L from (0x7fffffffece4) -- of Size = (4) 

-- ISN: (87965) : L from (0x7fffffffece4) -- of Size = (4) 

-- ISN: (87972) : S -> 0x(f0) at (0x7fffffffecd0) -- Size = (8) 

-- ISN: (87942) : L from (0x6bc3df) -- of Size = (1) 

-- ISN: (87975) : S -> 0x(20) at (0x7fffffffeccc) -- Size = (4) 

-- ISN: (87977) : L from (0x7fffffffeccc) -- of Size = (4) 

-- ISN: (87982) : L from (0x7fffffffeccc) -- of Size = (4) 

-- ISN: (87998) : L from (0x7fffffffecd0) -- of Size = (8) 

-- ISN: (88001) : L from (0x7fffffffecd8) -- of Size = (8) 

-- ISN: (87947) : S -> 0x(0) at (0x6bc424) -- Size = (4) 

-- ISN: (88004) : L from (0x7fffffffece4) -- of Size = (4) 

-- ISN: (87987) : L from (0x6bc4c0) -- of Size = (4) 

-- ISN: (88007) : S -> 0x(21) at (0x7fffffffece4) -- Size = (4) 

-- ISN: (88018) : S -> 0x(9b) at (0x7fffffffecd8) -- Size = (8) 

-- ISN: (88008) : L from (0x7fffffffece4) -- of Size = (4) 

-- ISN: (88014) : L from (0x7fffffffece4) -- of Size = (4) 

-- ISN: (88021) : S -> 0x(f0) at (0x7fffffffecd0) -- Size = (8) 

-- ISN: (87991) : L from (0x6bc3e0) -- of Size = (1) 

-- ISN: (88024) : S -> 0x(21) at (0x7fffffffeccc) -- Size = (4) 

-- ISN: (88026) : L from (0x7fffffffeccc) -- of Size = (4) 

-- ISN: (88031) : L from (0x7fffffffeccc) -- of Size = (4) 

-- ISN: (88047) : L from (0x7fffffffecd0) -- of Size = (8) 

-- ISN: (88050) : L from (0x7fffffffecd8) -- of Size = (8) 

-- ISN: (87996) : S -> 0x(0) at (0x6bc424) -- Size = (4) 

-- ISN: (88053) : L from (0x7fffffffece4) -- of Size = (4) 

-- ISN: (88036) : L from (0x6bc4c4) -- of Size = (4) 

-- ISN: (88056) : S -> 0x(22) at (0x7fffffffece4) -- Size = (4) 

-- ISN: (88067) : S -> 0x(9b) at (0x7fffffffecd8) -- Size = (8) 

-- ISN: (88057) : L from (0x7fffffffece4) -- of Size = (4) 

-- ISN: (88063) : L from (0x7fffffffece4) -- of Size = (4) 

-- ISN: (88070) : S -> 0x(f0) at (0x7fffffffecd0) -- Size = (8) 

-- ISN: (88040) : L from (0x6bc3e1) -- of Size = (1) 

-- ISN: (88073) : S -> 0x(22) at (0x7fffffffeccc) -- Size = (4) 

-- ISN: (88075) : L from (0x7fffffffeccc) -- of Size = (4) 

-- ISN: (88080) : L from (0x7fffffffeccc) -- of Size = (4) 

-- ISN: (88096) : L from (0x7fffffffecd0) -- of Size = (8) 

-- ISN: (88099) : L from (0x7fffffffecd8) -- of Size = (8) 

-- ISN: (88045) : S -> 0x(0) at (0x6bc424) -- Size = (4) 

-- ISN: (88102) : L from (0x7fffffffece4) -- of Size = (4) 

-- ISN: (88085) : L from (0x6bc4c8) -- of Size = (4) 

-- ISN: (88105) : S -> 0x(23) at (0x7fffffffece4) -- Size = (4) 

-- ISN: (88116) : S -> 0x(9b) at (0x7fffffffecd8) -- Size = (8) 

-- ISN: (88106) : L from (0x7fffffffece4) -- of Size = (4) 

-- ISN: (88112) : L from (0x7fffffffece4) -- of Size = (4) 

-- ISN: (88119) : S -> 0x(f0) at (0x7fffffffecd0) -- Size = (8) 

-- ISN: (88089) : L from (0x6bc3e2) -- of Size = (1) 

-- ISN: (88122) : S -> 0x(23) at (0x7fffffffeccc) -- Size = (4) 

-- ISN: (88124) : L from (0x7fffffffeccc) -- of Size = (4) 

-- ISN: (88129) : L from (0x7fffffffeccc) -- of Size = (4) 

-- ISN: (88145) : L from (0x7fffffffecd0) -- of Size = (8) 

-- ISN: (88148) : L from (0x7fffffffecd8) -- of Size = (8) 

-- ISN: (88094) : S -> 0x(0) at (0x6bc424) -- Size = (4) 

-- ISN: (88151) : L from (0x7fffffffece4) -- of Size = (4) 

-- ISN: (88134) : L from (0x6bc4cc) -- of Size = (4) 

-- ISN: (88154) : S -> 0x(24) at (0x7fffffffece4) -- Size = (4) 

-- ISN: (88165) : S -> 0x(9b) at (0x7fffffffecd8) -- Size = (8) 

-- ISN: (88155) : L from (0x7fffffffece4) -- of Size = (4) 

-- ISN: (88161) : L from (0x7fffffffece4) -- of Size = (4) 

-- ISN: (88168) : S -> 0x(f0) at (0x7fffffffecd0) -- Size = (8) 

-- ISN: (88138) : L from (0x6bc3e3) -- of Size = (1) 

-- ISN: (88171) : S -> 0x(24) at (0x7fffffffeccc) -- Size = (4) 

-- ISN: (88173) : L from (0x7fffffffeccc) -- of Size = (4) 

-- ISN: (88178) : L from (0x7fffffffeccc) -- of Size = (4) 

-- ISN: (88194) : L from (0x7fffffffecd0) -- of Size = (8) 

-- ISN: (88197) : L from (0x7fffffffecd8) -- of Size = (8) 

-- ISN: (88143) : S -> 0x(0) at (0x6bc424) -- Size = (4) 

-- ISN: (88200) : L from (0x7fffffffece4) -- of Size = (4) 

-- ISN: (88183) : L from (0x6bc4d0) -- of Size = (4) 

-- ISN: (88203) : S -> 0x(25) at (0x7fffffffece4) -- Size = (4) 

-- ISN: (88214) : S -> 0x(9b) at (0x7fffffffecd8) -- Size = (8) 

-- ISN: (88204) : L from (0x7fffffffece4) -- of Size = (4) 

-- ISN: (88210) : L from (0x7fffffffece4) -- of Size = (4) 

-- ISN: (88217) : S -> 0x(f0) at (0x7fffffffecd0) -- Size = (8) 

-- ISN: (88187) : L from (0x6bc3e4) -- of Size = (1) 

-- ISN: (88220) : S -> 0x(25) at (0x7fffffffeccc) -- Size = (4) 

-- ISN: (88222) : L from (0x7fffffffeccc) -- of Size = (4) 

-- ISN: (88227) : L from (0x7fffffffeccc) -- of Size = (4) 

-- ISN: (88243) : L from (0x7fffffffecd0) -- of Size = (8) 

-- ISN: (88246) : L from (0x7fffffffecd8) -- of Size = (8) 

-- ISN: (88192) : S -> 0x(0) at (0x6bc424) -- Size = (4) 

-- ISN: (88249) : L from (0x7fffffffece4) -- of Size = (4) 

-- ISN: (88232) : L from (0x6bc4d4) -- of Size = (4) 

-- ISN: (88252) : S -> 0x(26) at (0x7fffffffece4) -- Size = (4) 

-- ISN: (88263) : S -> 0x(9b) at (0x7fffffffecd8) -- Size = (8) 

-- ISN: (88253) : L from (0x7fffffffece4) -- of Size = (4) 

-- ISN: (88259) : L from (0x7fffffffece4) -- of Size = (4) 

-- ISN: (88266) : S -> 0x(f0) at (0x7fffffffecd0) -- Size = (8) 

-- ISN: (88236) : L from (0x6bc3e5) -- of Size = (1) 

-- ISN: (88269) : S -> 0x(26) at (0x7fffffffeccc) -- Size = (4) 

-- ISN: (88271) : L from (0x7fffffffeccc) -- of Size = (4) 

-- ISN: (88276) : L from (0x7fffffffeccc) -- of Size = (4) 

-- ISN: (88292) : L from (0x7fffffffecd0) -- of Size = (8) 

-- ISN: (88295) : L from (0x7fffffffecd8) -- of Size = (8) 

-- ISN: (88241) : S -> 0x(0) at (0x6bc424) -- Size = (4) 

-- ISN: (88298) : L from (0x7fffffffece4) -- of Size = (4) 

-- ISN: (88281) : L from (0x6bc4d8) -- of Size = (4) 

-- ISN: (88301) : S -> 0x(27) at (0x7fffffffece4) -- Size = (4) 

-- ISN: (88312) : S -> 0x(9b) at (0x7fffffffecd8) -- Size = (8) 

-- ISN: (88302) : L from (0x7fffffffece4) -- of Size = (4) 

-- ISN: (88308) : L from (0x7fffffffece4) -- of Size = (4) 

-- ISN: (88315) : S -> 0x(f0) at (0x7fffffffecd0) -- Size = (8) 

-- ISN: (88285) : L from (0x6bc3e6) -- of Size = (1) 

-- ISN: (88318) : S -> 0x(27) at (0x7fffffffeccc) -- Size = (4) 

-- ISN: (88320) : L from (0x7fffffffeccc) -- of Size = (4) 

-- ISN: (88325) : L from (0x7fffffffeccc) -- of Size = (4) 

-- ISN: (88341) : L from (0x7fffffffecd0) -- of Size = (8) 

-- ISN: (88344) : L from (0x7fffffffecd8) -- of Size = (8) 

-- ISN: (88290) : S -> 0x(0) at (0x6bc424) -- Size = (4) 

[...]

-- ISN: (90486) : L from (0x6bc58c) -- of Size = (4) 

-- ISN: (90506) : S -> 0x(54) at (0x7fffffffece4) -- Size = (4) 

-- ISN: (90517) : S -> 0x(9b) at (0x7fffffffecd8) -- Size = (8) 

-- ISN: (90507) : L from (0x7fffffffece4) -- of Size = (4) 

-- ISN: (90513) : L from (0x7fffffffece4) -- of Size = (4) 

-- ISN: (90520) : S -> 0x(f0) at (0x7fffffffecd0) -- Size = (8) 

-- ISN: (90490) : L from (0x6bc413) -- of Size = (1) 

-- ISN: (90523) : S -> 0x(54) at (0x7fffffffeccc) -- Size = (4) 

-- ISN: (90525) : L from (0x7fffffffeccc) -- of Size = (4) 

-- ISN: (90530) : L from (0x7fffffffeccc) -- of Size = (4) 

-- ISN: (90546) : L from (0x7fffffffecd0) -- of Size = (8) 

-- ISN: (90549) : L from (0x7fffffffecd8) -- of Size = (8) 

-- ISN: (90495) : S -> 0x(0) at (0x6bc424) -- Size = (4) 

-- ISN: (90552) : L from (0x7fffffffece4) -- of Size = (4) 

-- ISN: (90535) : L from (0x6bc590) -- of Size = (4) 

-- ISN: (90555) : S -> 0x(55) at (0x7fffffffece4) -- Size = (4) 

-- ISN: (90566) : S -> 0x(9b) at (0x7fffffffecd8) -- Size = (8) 

-- ISN: (90556) : L from (0x7fffffffece4) -- of Size = (4) 

-- ISN: (90562) : L from (0x7fffffffece4) -- of Size = (4) 

-- ISN: (90569) : S -> 0x(f0) at (0x7fffffffecd0) -- Size = (8) 

-- ISN: (90539) : L from (0x6bc414) -- of Size = (1) 

-- ISN: (90572) : S -> 0x(55) at (0x7fffffffeccc) -- Size = (4) 

-- ISN: (90574) : L from (0x7fffffffeccc) -- of Size = (4) 

-- ISN: (90579) : L from (0x7fffffffeccc) -- of Size = (4) 

-- ISN: (90595) : L from (0x7fffffffecd0) -- of Size = (8) 

-- ISN: (90598) : L from (0x7fffffffecd8) -- of Size = (8) 

-- ISN: (90544) : S -> 0x(0) at (0x6bc424) -- Size = (4) 

-- ISN: (90601) : L from (0x7fffffffece4) -- of Size = (4) 

-- ISN: (90584) : L from (0x6bc594) -- of Size = (4) 

-- ISN: (90604) : S -> 0x(56) at (0x7fffffffece4) -- Size = (4) 

-- ISN: (90615) : S -> 0x(9b) at (0x7fffffffecd8) -- Size = (8) 

-- ISN: (90605) : L from (0x7fffffffece4) -- of Size = (4) 

-- ISN: (90611) : L from (0x7fffffffece4) -- of Size = (4) 

-- ISN: (90618) : S -> 0x(f0) at (0x7fffffffecd0) -- Size = (8) 

-- ISN: (90588) : L from (0x6bc415) -- of Size = (1) 

-- ISN: (90621) : S -> 0x(56) at (0x7fffffffeccc) -- Size = (4) 

-- ISN: (90623) : L from (0x7fffffffeccc) -- of Size = (4) 

-- ISN: (90628) : L from (0x7fffffffeccc) -- of Size = (4) 

-- ISN: (90644) : L from (0x7fffffffecd0) -- of Size = (8) 

-- ISN: (90647) : L from (0x7fffffffecd8) -- of Size = (8) 

-- ISN: (90593) : S -> 0x(0) at (0x6bc424) -- Size = (4) 

-- ISN: (90650) : L from (0x7fffffffece4) -- of Size = (4) 

-- ISN: (90633) : L from (0x6bc598) -- of Size = (4) 

-- ISN: (90653) : S -> 0x(57) at (0x7fffffffece4) -- Size = (4) 

-- ISN: (90664) : S -> 0x(9b) at (0x7fffffffecd8) -- Size = (8) 

-- ISN: (90654) : L from (0x7fffffffece4) -- of Size = (4) 

-- ISN: (90660) : L from (0x7fffffffece4) -- of Size = (4) 

-- ISN: (90667) : S -> 0x(f0) at (0x7fffffffecd0) -- Size = (8) 

-- ISN: (90637) : L from (0x6bc416) -- of Size = (1) 

-- ISN: (90670) : S -> 0x(57) at (0x7fffffffeccc) -- Size = (4) 

-- ISN: (90672) : L from (0x7fffffffeccc) -- of Size = (4) 

-- ISN: (90677) : L from (0x7fffffffeccc) -- of Size = (4) 

-- ISN: (90693) : L from (0x7fffffffecd0) -- of Size = (8) 

-- ISN: (90696) : L from (0x7fffffffecd8) -- of Size = (8) 

-- ISN: (90642) : S -> 0x(0) at (0x6bc424) -- Size = (4) 

-- ISN: (90699) : L from (0x7fffffffece4) -- of Size = (4) 

-- ISN: (90682) : L from (0x6bc59c) -- of Size = (4) 

-- ISN: (90702) : S -> 0x(58) at (0x7fffffffece4) -- Size = (4) 

-- ISN: (90713) : S -> 0x(9b) at (0x7fffffffecd8) -- Size = (8) 

-- ISN: (90703) : L from (0x7fffffffece4) -- of Size = (4) 

-- ISN: (90709) : L from (0x7fffffffece4) -- of Size = (4) 

-- ISN: (90716) : S -> 0x(f0) at (0x7fffffffecd0) -- Size = (8) 

-- ISN: (90686) : L from (0x6bc417) -- of Size = (1) 

-- ISN: (90719) : S -> 0x(58) at (0x7fffffffeccc) -- Size = (4) 

-- ISN: (90721) : L from (0x7fffffffeccc) -- of Size = (4) 

-- ISN: (90726) : L from (0x7fffffffeccc) -- of Size = (4) 

-- ISN: (90742) : L from (0x7fffffffecd0) -- of Size = (8) 

-- ISN: (90745) : L from (0x7fffffffecd8) -- of Size = (8) 

-- ISN: (90691) : S -> 0x(0) at (0x6bc424) -- Size = (4) 

-- ISN: (90748) : L from (0x7fffffffece4) -- of Size = (4) 

-- ISN: (90731) : L from (0x6bc5a0) -- of Size = (4) 

-- ISN: (90751) : S -> 0x(59) at (0x7fffffffece4) -- Size = (4) 

-- ISN: (90762) : S -> 0x(9b) at (0x7fffffffecd8) -- Size = (8) 

-- ISN: (90752) : L from (0x7fffffffece4) -- of Size = (4) 

-- ISN: (90758) : L from (0x7fffffffece4) -- of Size = (4) 

-- ISN: (90765) : S -> 0x(f0) at (0x7fffffffecd0) -- Size = (8) 

-- ISN: (90735) : L from (0x6bc418) -- of Size = (1) 

-- ISN: (90768) : S -> 0x(59) at (0x7fffffffeccc) -- Size = (4) 

-- ISN: (90770) : L from (0x7fffffffeccc) -- of Size = (4) 

-- ISN: (90775) : L from (0x7fffffffeccc) -- of Size = (4) 

-- ISN: (90791) : L from (0x7fffffffecd0) -- of Size = (8) 

-- ISN: (90794) : L from (0x7fffffffecd8) -- of Size = (8) 

-- ISN: (90740) : S -> 0x(0) at (0x6bc424) -- Size = (4) 

-- ISN: (90797) : L from (0x7fffffffece4) -- of Size = (4) 

-- ISN: (90780) : L from (0x6bc5a4) -- of Size = (4) 

-- ISN: (90800) : S -> 0x(5a) at (0x7fffffffece4) -- Size = (4) 

-- ISN: (90811) : S -> 0x(9b) at (0x7fffffffecd8) -- Size = (8) 

-- ISN: (90801) : L from (0x7fffffffece4) -- of Size = (4) 

-- ISN: (90807) : L from (0x7fffffffece4) -- of Size = (4) 

-- ISN: (90814) : S -> 0x(f0) at (0x7fffffffecd0) -- Size = (8) 

-- ISN: (90784) : L from (0x6bc419) -- of Size = (1) 

-- ISN: (90817) : S -> 0x(5a) at (0x7fffffffeccc) -- Size = (4) 

-- ISN: (90819) : L from (0x7fffffffeccc) -- of Size = (4) 

-- ISN: (90824) : L from (0x7fffffffeccc) -- of Size = (4) 

-- ISN: (90840) : L from (0x7fffffffecd0) -- of Size = (8) 

-- ISN: (90843) : L from (0x7fffffffecd8) -- of Size = (8) 

-- ISN: (90789) : S -> 0x(0) at (0x6bc424) -- Size = (4) 

-- ISN: (90846) : L from (0x7fffffffece4) -- of Size = (4) 

-- ISN: (90829) : L from (0x6bc5a8) -- of Size = (4) 

-- ISN: (90849) : S -> 0x(5b) at (0x7fffffffece4) -- Size = (4) 

-- ISN: (90860) : S -> 0x(9b) at (0x7fffffffecd8) -- Size = (8) 

-- ISN: (90850) : L from (0x7fffffffece4) -- of Size = (4) 

-- ISN: (90856) : L from (0x7fffffffece4) -- of Size = (4) 

-- ISN: (90863) : S -> 0x(f0) at (0x7fffffffecd0) -- Size = (8) 

-- ISN: (90833) : L from (0x6bc41a) -- of Size = (1) 

-- ISN: (90866) : S -> 0x(5b) at (0x7fffffffeccc) -- Size = (4) 

-- ISN: (90868) : L from (0x7fffffffeccc) -- of Size = (4) 

-- ISN: (90873) : L from (0x7fffffffeccc) -- of Size = (4) 

-- ISN: (90889) : L from (0x7fffffffecd0) -- of Size = (8) 

-- ISN: (90892) : L from (0x7fffffffecd8) -- of Size = (8) 

-- ISN: (90838) : S -> 0x(0) at (0x6bc424) -- Size = (4) 

-- ISN: (90895) : L from (0x7fffffffece4) -- of Size = (4) 

-- ISN: (90878) : L from (0x6bc5ac) -- of Size = (4) 

-- ISN: (90898) : S -> 0x(5c) at (0x7fffffffece4) -- Size = (4) 

-- ISN: (90909) : S -> 0x(9b) at (0x7fffffffecd8) -- Size = (8) 

-- ISN: (90899) : L from (0x7fffffffece4) -- of Size = (4) 

-- ISN: (90905) : L from (0x7fffffffece4) -- of Size = (4) 

-- ISN: (90912) : S -> 0x(f0) at (0x7fffffffecd0) -- Size = (8) 

-- ISN: (90882) : L from (0x6bc41b) -- of Size = (1) 

-- ISN: (90915) : S -> 0x(5c) at (0x7fffffffeccc) -- Size = (4) 

-- ISN: (90917) : L from (0x7fffffffeccc) -- of Size = (4) 

-- ISN: (90922) : L from (0x7fffffffeccc) -- of Size = (4) 

-- ISN: (90938) : L from (0x7fffffffecd0) -- of Size = (8) 

-- ISN: (90941) : L from (0x7fffffffecd8) -- of Size = (8) 

-- ISN: (90887) : S -> 0x(0) at (0x6bc424) -- Size = (4) 

-- ISN: (90944) : L from (0x7fffffffece4) -- of Size = (4) 

-- ISN: (90927) : L from (0x6bc5b0) -- of Size = (4) 

-- ISN: (90947) : S -> 0x(5d) at (0x7fffffffece4) -- Size = (4) 

-- ISN: (90958) : S -> 0x(9b) at (0x7fffffffecd8) -- Size = (8) 

-- ISN: (90948) : L from (0x7fffffffece4) -- of Size = (4) 

-- ISN: (90954) : L from (0x7fffffffece4) -- of Size = (4) 

-- ISN: (90961) : S -> 0x(f0) at (0x7fffffffecd0) -- Size = (8) 

-- ISN: (90931) : L from (0x6bc41c) -- of Size = (1) 

-- ISN: (90964) : S -> 0x(5d) at (0x7fffffffeccc) -- Size = (4) 

-- ISN: (90966) : L from (0x7fffffffeccc) -- of Size = (4) 

-- ISN: (90971) : L from (0x7fffffffeccc) -- of Size = (4) 

-- ISN: (90987) : L from (0x7fffffffecd0) -- of Size = (8) 

-- ISN: (90990) : L from (0x7fffffffecd8) -- of Size = (8) 

-- ISN: (90936) : S -> 0x(0) at (0x6bc424) -- Size = (4) 

-- ISN: (90993) : L from (0x7fffffffece4) -- of Size = (4) 

-- ISN: (90976) : L from (0x6bc5b4) -- of Size = (4) 

-- ISN: (90996) : S -> 0x(5e) at (0x7fffffffece4) -- Size = (4) 

-- ISN: (91007) : S -> 0x(9b) at (0x7fffffffecd8) -- Size = (8) 

-- ISN: (90997) : L from (0x7fffffffece4) -- of Size = (4) 

-- ISN: (91003) : L from (0x7fffffffece4) -- of Size = (4) 

-- ISN: (91010) : S -> 0x(f0) at (0x7fffffffecd0) -- Size = (8) 

-- ISN: (90980) : L from (0x6bc41d) -- of Size = (1) 

-- ISN: (91013) : S -> 0x(5e) at (0x7fffffffeccc) -- Size = (4) 

-- ISN: (91015) : L from (0x7fffffffeccc) -- of Size = (4) 

-- ISN: (91020) : L from (0x7fffffffeccc) -- of Size = (4) 

-- ISN: (91036) : L from (0x7fffffffecd0) -- of Size = (8) 

-- ISN: (91039) : L from (0x7fffffffecd8) -- of Size = (8) 

-- ISN: (90985) : S -> 0x(0) at (0x6bc424) -- Size = (4) 

-- ISN: (91042) : L from (0x7fffffffece4) -- of Size = (4) 

-- ISN: (91025) : L from (0x6bc5b8) -- of Size = (4) 

-- ISN: (91045) : S -> 0x(5f) at (0x7fffffffece4) -- Size = (4) 

-- ISN: (91056) : S -> 0x(9b) at (0x7fffffffecd8) -- Size = (8) 

-- ISN: (91046) : L from (0x7fffffffece4) -- of Size = (4) 

-- ISN: (91052) : L from (0x7fffffffece4) -- of Size = (4) 

-- ISN: (91059) : S -> 0x(f0) at (0x7fffffffecd0) -- Size = (8) 

-- ISN: (91029) : L from (0x6bc41e) -- of Size = (1) 

-- ISN: (91062) : S -> 0x(5f) at (0x7fffffffeccc) -- Size = (4) 

-- ISN: (91064) : L from (0x7fffffffeccc) -- of Size = (4) 

-- ISN: (91069) : L from (0x7fffffffeccc) -- of Size = (4) 

-- ISN: (91085) : L from (0x7fffffffecd0) -- of Size = (8) 

-- ISN: (91088) : L from (0x7fffffffecd8) -- of Size = (8) 

-- ISN: (91034) : S -> 0x(0) at (0x6bc424) -- Size = (4) 

-- ISN: (91091) : L from (0x7fffffffece4) -- of Size = (4) 

-- ISN: (91074) : L from (0x6bc5bc) -- of Size = (4) 

-- ISN: (91094) : S -> 0x(60) at (0x7fffffffece4) -- Size = (4) 

-- ISN: (91105) : S -> 0x(9b) at (0x7fffffffecd8) -- Size = (8) 

-- ISN: (91095) : L from (0x7fffffffece4) -- of Size = (4) 

-- ISN: (91101) : L from (0x7fffffffece4) -- of Size = (4) 

-- ISN: (91108) : S -> 0x(f0) at (0x7fffffffecd0) -- Size = (8) 

-- ISN: (91078) : L from (0x6bc41f) -- of Size = (1) 

-- ISN: (91111) : S -> 0x(60) at (0x7fffffffeccc) -- Size = (4) 

-- ISN: (91113) : L from (0x7fffffffeccc) -- of Size = (4) 

-- ISN: (91118) : L from (0x7fffffffeccc) -- of Size = (4) 

-- ISN: (91134) : L from (0x7fffffffecd0) -- of Size = (8) 

-- ISN: (91137) : L from (0x7fffffffecd8) -- of Size = (8) 

-- ISN: (91083) : S -> 0x(0) at (0x6bc424) -- Size = (4) 

-- ISN: (91140) : L from (0x7fffffffece4) -- of Size = (4) 

-- ISN: (91123) : L from (0x6bc5c0) -- of Size = (4) 

-- ISN: (91143) : S -> 0x(61) at (0x7fffffffece4) -- Size = (4) 

-- ISN: (91154) : S -> 0x(9b) at (0x7fffffffecd8) -- Size = (8) 

-- ISN: (91144) : L from (0x7fffffffece4) -- of Size = (4) 

-- ISN: (91150) : L from (0x7fffffffece4) -- of Size = (4) 

-- ISN: (91157) : S -> 0x(f0) at (0x7fffffffecd0) -- Size = (8) 

-- ISN: (91127) : L from (0x6bc420) -- of Size = (1) 

-- ISN: (91160) : S -> 0x(61) at (0x7fffffffeccc) -- Size = (4) 

-- ISN: (91162) : L from (0x7fffffffeccc) -- of Size = (4) 

-- ISN: (91167) : L from (0x7fffffffeccc) -- of Size = (4) 

-- ISN: (91183) : L from (0x7fffffffecd0) -- of Size = (8) 

-- ISN: (91186) : L from (0x7fffffffecd8) -- of Size = (8) 

-- ISN: (91132) : S -> 0x(0) at (0x6bc424) -- Size = (4) 

-- ISN: (91189) : L from (0x7fffffffece4) -- of Size = (4) 

-- ISN: (91172) : L from (0x6bc5c4) -- of Size = (4) 

-- ISN: (91192) : S -> 0x(62) at (0x7fffffffece4) -- Size = (4) 

-- ISN: (91203) : S -> 0x(9b) at (0x7fffffffecd8) -- Size = (8) 

-- ISN: (91193) : L from (0x7fffffffece4) -- of Size = (4) 

-- ISN: (91199) : L from (0x7fffffffece4) -- of Size = (4) 

-- ISN: (91206) : S -> 0x(f0) at (0x7fffffffecd0) -- Size = (8) 

-- ISN: (91176) : L from (0x6bc421) -- of Size = (1) 

-- ISN: (91209) : S -> 0x(62) at (0x7fffffffeccc) -- Size = (4) 

-- ISN: (91211) : L from (0x7fffffffeccc) -- of Size = (4) 

-- ISN: (91216) : L from (0x7fffffffeccc) -- of Size = (4) 

-- ISN: (91232) : L from (0x7fffffffecd0) -- of Size = (8) 

-- ISN: (91235) : L from (0x7fffffffecd8) -- of Size = (8) 

-- ISN: (91181) : S -> 0x(0) at (0x6bc424) -- Size = (4) 

-- ISN: (91238) : L from (0x7fffffffece4) -- of Size = (4) 

-- ISN: (91221) : L from (0x6bc5c8) -- of Size = (4) 

-- ISN: (91241) : S -> 0x(63) at (0x7fffffffece4) -- Size = (4) 

-- ISN: (91252) : S -> 0x(9b) at (0x7fffffffecd8) -- Size = (8) 

-- ISN: (91242) : L from (0x7fffffffece4) -- of Size = (4) 

-- ISN: (91248) : L from (0x7fffffffece4) -- of Size = (4) 

-- ISN: (91255) : S -> 0x(f0) at (0x7fffffffecd0) -- Size = (8) 

-- ISN: (91225) : L from (0x6bc422) -- of Size = (1) 

-- ISN: (91258) : S -> 0x(63) at (0x7fffffffeccc) -- Size = (4) 

-- ISN: (91260) : L from (0x7fffffffeccc) -- of Size = (4) 

-- ISN: (91265) : L from (0x7fffffffeccc) -- of Size = (4) 

-- ISN: (91281) : L from (0x7fffffffecd0) -- of Size = (8) 

-- ISN: (91284) : L from (0x7fffffffecd8) -- of Size = (8) 

-- ISN: (91230) : S -> 0x(0) at (0x6bc424) -- Size = (4) 

-- ISN: (91287) : L from (0x7fffffffece4) -- of Size = (4) 

-- ISN: (91270) : L from (0x6bc5cc) -- of Size = (4) 

-- ISN: (91290) : S -> 0x(64) at (0x7fffffffece4) -- Size = (4) 

-- ISN: (91301) : S -> 0x(9b) at (0x7fffffffecd8) -- Size = (8) 

-- ISN: (91291) : L from (0x7fffffffece4) -- of Size = (4) 

-- ISN: (91297) : L from (0x7fffffffece4) -- of Size = (4) 

-- ISN: (91304) : S -> 0x(f0) at (0x7fffffffecd0) -- Size = (8) 

-- ISN: (91274) : L from (0x6bc423) -- of Size = (1) 

-- ISN: (91307) : S -> 0x(64) at (0x7fffffffeccc) -- Size = (4) 

-- ISN: (91309) : L from (0x7fffffffeccc) -- of Size = (4) 

-- ISN: (91314) : L from (0x7fffffffeccc) -- of Size = (4) 

-- ISN: (91330) : L from (0x7fffffffecd0) -- of Size = (8) 

-- Sqsh -> ISN (91296)

-- ISN: (91279) : S -> 0x(0) at (0x6bc424) -- Size = (4) 

-- ISN: (91356) : S -> 0x(b6) at (0x7fffffffecd8) -- Size = (8) 

-- ISN: (91360) : S -> 0x(0) at (0x7fffffffece0) -- Size = (4) 

-- ISN: (91364) : L from (0x7fffffffece0) -- of Size = (4) 

-- ISN: (91368) : L from (0x7fffffffece0) -- of Size = (4) 

-- Sqsh -> ISN (91358)

-- ISN: (91422) : S -> 0x(f0) at (0x7fffffffecd0) -- Size = (8) 

-- ISN: (91425) : S -> 0x(69) at (0x7fffffffeccc) -- Size = (4) 

-- ISN: (91427) : L from (0x7fffffffeccc) -- of Size = (4) 

-- ISN: (91432) : L from (0x7fffffffeccc) -- of Size = (4) 

-- ISN: (91448) : L from (0x7fffffffecd0) -- of Size = (8) 

-- ISN: (91451) : L from (0x7fffffffecd8) -- of Size = (8) 

-- ISN: (91437) : L from (0x6bc5e4) -- of Size = (4) 									Transient statement

-- ISN: (91455) : S -> 0x(0) at (0x7fffffffece0) -- Size = (4) 

-- Sqsh -> ISN (91431)																	Squash instruction

-- ISN: (91495) : L from (0x7fffffffecd0) -- of Size = (8) 

-- ISN: (91498) : L from (0x7fffffffecd8) -- of Size = (8) 

-- ISN: (91502) : S -> 0x(0) at (0x7fffffffece0) -- Size = (4) 

-- ISN: (91523) : L from (0x7fffffffece8) -- of Size = (8) 

-- ISN: (91524) : L from (0x6bd8a8) -- of Size = (8) 

-- Sqsh -> ISN (91505)

-- ISN: (91567) : L from (0x7fffffffece0) -- of Size = (4) 

-- ISN: (91580) : L from (0x7fffffffece8) -- of Size = (8) 

-- ISN: (91581) : L from (0x6bd8a8) -- of Size = (8) 

-- ISN: (91576) : S -> 0x(da) at (0x7fffffffecd8) -- Size = (8) 

-- ISN: (91588) : S -> 0x(f3) at (0x7fffffffecd0) -- Size = (8) 

-- Sqsh -> ISN (91578)

-- Sqsh -> ISN (91572)

-- ISN: (91631) : L from (0x7fffffffece0) -- of Size = (4) 

-- ISN: (91635) : L from (0x7fffffffece0) -- of Size = (4) 

-- ISN: (91644) : S -> 0x(da) at (0x7fffffffecd8) -- Size = (8) 

-- ISN: (91648) : L from (0x7fffffffece8) -- of Size = (8) 

-- ISN: (91649) : L from (0x6bd8a8) -- of Size = (8) 

-- Sqsh -> ISN (91646)

-- ISN: (91634) : S -> 0x(1) at (0x7fffffffece0) -- Size = (4) 

-- Sqsh -> ISN (91634)

-- ISN: (91699) : L from (0x7fffffffece0) -- of Size = (4) 

-- ISN: (91708) : S -> 0x(da) at (0x7fffffffecd8) -- Size = (8) 

-- ISN: (91712) : L from (0x7fffffffecd8) -- of Size = (8) 

-- ISN: (91716) : L from (0x7fffffffece8) -- of Size = (8) 

-- ISN: (91717) : L from (0x6bd8a8) -- of Size = (8) 

-- ISN: (91724) : S -> 0x(f3) at (0x7fffffffecd8) -- Size = (8) 

-- Sqsh -> ISN (91704)

-- ISN: (91741) : L from (0x7fffffffece0) -- of Size = (4) 

-- ISN: (91754) : S -> 0x(da) at (0x7fffffffecd8) -- Size = (8) 

-- ISN: (91758) : L from (0x7fffffffece8) -- of Size = (8) 

-- ISN: (91759) : L from (0x6bd8a8) -- of Size = (8) 

-- Sqsh -> ISN (91756)

-- ISN: (91744) : S -> 0x(2) at (0x7fffffffece0) -- Size = (4) 

-- ISN: (91745) : L from (0x7fffffffece0) -- of Size = (4) 

-- Sqsh -> ISN (91750)

-- ISN: (91821) : L from (0x7fffffffece0) -- of Size = (4) 

-- ISN: (91834) : S -> 0x(da) at (0x7fffffffecd8) -- Size = (8) 

-- ISN: (91838) : L from (0x7fffffffece8) -- of Size = (8) 

-- ISN: (91839) : L from (0x6bd8a8) -- of Size = (8) 

-- Sqsh -> ISN (91836)

-- ISN: (91824) : S -> 0x(3) at (0x7fffffffece0) -- Size = (4) 

-- ISN: (91825) : L from (0x7fffffffece0) -- of Size = (4) 

-- Sqsh -> ISN (91830)

-- ISN: (91901) : L from (0x7fffffffece0) -- of Size = (4) 

-- ISN: (91914) : S -> 0x(da) at (0x7fffffffecd8) -- Size = (8) 

-- ISN: (91918) : L from (0x7fffffffecd8) -- of Size = (8) 

-- ISN: (91922) : L from (0x7fffffffece8) -- of Size = (8) 

-- ISN: (91923) : L from (0x6bd8a8) -- of Size = (8) 

-- ISN: (91904) : S -> 0x(4) at (0x7fffffffece0) -- Size = (4) 

-- ISN: (91905) : L from (0x7fffffffece0) -- of Size = (4) 

-- ISN: (91930) : S -> 0x(f3) at (0x7fffffffecd8) -- Size = (8) 

-- ISN: (91934) : L from (0x7fffffffecf0) -- of Size = (8) 

-- Sqsh -> ISN (91921)

-- Sqsh -> ISN (91910)

-- ISN: (91955) : L from (0x7fffffffece0) -- of Size = (4) 

-- ISN: (91958) : S -> 0x(5) at (0x7fffffffece0) -- Size = (4) 

-- ISN: (91959) : L from (0x7fffffffece0) -- of Size = (4) 

-- ISN: (91965) : L from (0x7fffffffece0) -- of Size = (4) 

-- ISN: (91968) : S -> 0x(6) at (0x7fffffffece0) -- Size = (4) 

-- ISN: (91969) : L from (0x7fffffffece0) -- of Size = (4) 

-- ISN: (91975) : L from (0x7fffffffece0) -- of Size = (4) 

-- ISN: (91978) : S -> 0x(7) at (0x7fffffffece0) -- Size = (4) 

-- ISN: (91979) : L from (0x7fffffffece0) -- of Size = (4) 

-- ISN: (91985) : L from (0x7fffffffece0) -- of Size = (4) 

-- ISN: (91988) : S -> 0x(8) at (0x7fffffffece0) -- Size = (4) 

-- ISN: (91989) : L from (0x7fffffffece0) -- of Size = (4) 

-- ISN: (91995) : L from (0x7fffffffece0) -- of Size = (4) 

-- ISN: (91998) : S -> 0x(9) at (0x7fffffffece0) -- Size = (4) 

-- ISN: (91999) : L from (0x7fffffffece0) -- of Size = (4) 

-- ISN: (92005) : L from (0x7fffffffece0) -- of Size = (4) 

-- ISN: (92008) : S -> 0x(a) at (0x7fffffffece0) -- Size = (4) 

-- ISN: (92009) : L from (0x7fffffffece0) -- of Size = (4) 

-- ISN: (92015) : L from (0x7fffffffece0) -- of Size = (4) 

-- ISN: (92018) : S -> 0x(b) at (0x7fffffffece0) -- Size = (4) 

-- Sqsh -> ISN (92014)

-- ISN: (92042) : L from (0x7fffffffece8) -- of Size = (8) 

-- ISN: (92038) : S -> 0x(da) at (0x7fffffffecd8) -- Size = (8) 

-- ISN: (92043) : L from (0x6bd8a8) -- of Size = (8) 

-- Sqsh -> ISN (92040)

-- ISN: (92087) : L from (0x7fffffffecd8) -- of Size = (8) 

HERE 2 : enable_memreq_tracing = 0
Exiting @ tick 37265000 because exiting with last active thread context
