gem5 Simulator System.  http://gem5.org
gem5 is copyrighted software; use the --copyright option for details.

gem5 compiled Mar  6 2020 13:38:01
gem5 started Mar  6 2020 13:46:55
gem5 executing on tarun-s, pid 24406
command line: build/X86/gem5.opt configs/example/se.py --cmd=./tests/my_progs/spectre_test_2 --cpu-type=DerivO3CPU --caches --mem-size=4GB --l1d_size=32kB --l1i_size=32kB --l1d_assoc=4 --l1i_assoc=4 --cacheline_size=64

Global frequency set at 1000000000000 ticks per second
**** REAL SIMULATION ****

Address of a1_len = 0x6b90f0 

Address of i = 0x7fffffffed10 

Address of j = 0x7fffffffed14 

Address of x = 0x6bc3a0 

Address of y = 0x6bc428 

Address of array1 = 0x6bc440 

Address of array2 = 0x6bc3c0 

Address of array3 = 0x6bc5e0 
HERE 1 : enable_memreq_tracing = 1
-- Tick (34532500) -- ISN: (92355) : L from (0x7fffffffed10) -- of Size = (4) -- vaddr (0x7fffffffed10) -- paddr (0xc4d10) 

-- Tick (34532500) -- ISN: (92356) : L from (0x7fffffffed10) -- of Size = (4) -- vaddr (0x7fffffffed10) -- paddr (0xc4d10) 

-- Tick (34533000) -- ISN: (92351) : S -> 0x(0) at (0x7fffffffed10) -- Size = (4) -- vaddr (0x7fffffffed10) -- paddr (0xc4d10) 

-- Tick (34533000) -- ISN: (92362) : L from (0x7fffffffed10) -- of Size = (4) -- vaddr (0x7fffffffed10) -- paddr (0xc4d10) 

-- Tick (34533500) -- ISN: (92366) : L from (0x7fffffffed10) -- of Size = (4) -- vaddr (0x7fffffffed10) -- paddr (0xc4d10) 

-- Sqsh -> ISN (92354)

-- Tick (34538500) -- ISN: (92403) : L from (0x7fffffffed10) -- of Size = (4) -- vaddr (0x7fffffffed10) -- paddr (0xc4d10) 

-- Tick (34539000) -- ISN: (92410) : S -> 0x(0) at (0x7fffffffed14) -- Size = (4) -- vaddr (0x7fffffffed14) -- paddr (0xc4d14) 

-- Tick (34540000) -- ISN: (92415) : L from (0x6bd0c0) -- of Size = (4) -- vaddr (0x6bd0c0) -- paddr (0xbd0c0) 

-- Tick (34540000) -- ISN: (92419) : L from (0x6bf0c0) -- of Size = (4) -- vaddr (0x6bf0c0) -- paddr (0xbf0c0) 

-- Tick (34540500) -- ISN: (92423) : L from (0x6c10c0) -- of Size = (4) -- vaddr (0x6c10c0) -- paddr (0xc10c0) 

-- Tick (34540500) -- ISN: (92427) : L from (0x6c30c0) -- of Size = (4) -- vaddr (0x6c30c0) -- paddr (0xc30c0) 

-- Tick (34540500) -- ISN: (92430) : L from (0x7fffffffed14) -- of Size = (4) -- vaddr (0x7fffffffed14) -- paddr (0xc4d14) 

-- Sqsh -> ISN (92413)

-- Sqsh -> ISN (92408)

-- Tick (34547000) -- ISN: (92442) : L from (0x7fffffffed10) -- of Size = (4) -- vaddr (0x7fffffffed10) -- paddr (0xc4d10) 

-- Tick (34547000) -- ISN: (92443) : L from (0x7fffffffed10) -- of Size = (4) -- vaddr (0x7fffffffed10) -- paddr (0xc4d10) 

-- Tick (34547000) -- ISN: (92449) : L from (0x7fffffffed10) -- of Size = (4) -- vaddr (0x7fffffffed10) -- paddr (0xc4d10) 

-- Tick (34548000) -- ISN: (92453) : L from (0x7fffffffed10) -- of Size = (4) -- vaddr (0x7fffffffed10) -- paddr (0xc4d10) 

-- Tick (34548500) -- ISN: (92459) : L from (0x7fffffffed10) -- of Size = (4) -- vaddr (0x7fffffffed10) -- paddr (0xc4d10) 

-- Tick (34548500) -- ISN: (92460) : L from (0x7fffffffed10) -- of Size = (4) -- vaddr (0x7fffffffed10) -- paddr (0xc4d10) 

-- Tick (34549000) -- ISN: (92466) : L from (0x7fffffffed10) -- of Size = (4) -- vaddr (0x7fffffffed10) -- paddr (0xc4d10) 

-- Tick (34549000) -- ISN: (92470) : L from (0x7fffffffed10) -- of Size = (4) -- vaddr (0x7fffffffed10) -- paddr (0xc4d10) 

-- Tick (34550000) -- ISN: (92477) : S -> 0x(0) at (0x7fffffffed14) -- Size = (4) -- vaddr (0x7fffffffed14) -- paddr (0xc4d14) 

-- Tick (34550000) -- ISN: (92482) : L from (0x6bd0c0) -- of Size = (4) -- vaddr (0x6bd0c0) -- paddr (0xbd0c0) 

-- Tick (34550500) -- ISN: (92486) : L from (0x6bf0c0) -- of Size = (4) -- vaddr (0x6bf0c0) -- paddr (0xbf0c0) 

-- Tick (34550500) -- ISN: (92490) : L from (0x6c10c0) -- of Size = (4) -- vaddr (0x6c10c0) -- paddr (0xc10c0) 

-- Tick (34550500) -- ISN: (92497) : L from (0x7fffffffed14) -- of Size = (4) -- vaddr (0x7fffffffed14) -- paddr (0xc4d14) 

-- Sqsh -> ISN (92480)

-- Tick (34556000) -- ISN: (92509) : L from (0x7fffffffed14) -- of Size = (4) -- vaddr (0x7fffffffed14) -- paddr (0xc4d14) 

-- Tick (34593500) -- ISN: (92516) : L from (0x6bd0c0) -- of Size = (4) -- vaddr (0x6bd0c0) -- paddr (0xbd0c0) 

-- Tick (34594000) -- ISN: (92520) : L from (0x6bf0c0) -- of Size = (4) -- vaddr (0x6bf0c0) -- paddr (0xbf0c0) 

-- Tick (34594000) -- ISN: (92524) : L from (0x6c10c0) -- of Size = (4) -- vaddr (0x6c10c0) -- paddr (0xc10c0) 

-- Tick (34594500) -- ISN: (92528) : L from (0x6c30c0) -- of Size = (4) -- vaddr (0x6c30c0) -- paddr (0xc30c0) 

-- Tick (34594500) -- ISN: (92534) : S -> 0x(3d) at (0x7fffffffed08) -- Size = (8) -- vaddr (0x7fffffffed08) -- paddr (0xc4d08) 

-- Sqsh -> ISN (92514)

-- Tick (34597000) -- ISN: (92442) : L from (0x7fffffffed10) -- of Size = (4) -- vaddr (0x7fffffffed10) -- paddr (0xc4d10) 

-- Tick (34597000) -- ISN: (92443) : L from (0x7fffffffed10) -- of Size = (4) -- vaddr (0x7fffffffed10) -- paddr (0xc4d10) 

-- Tick (34597000) -- ISN: (92449) : L from (0x7fffffffed10) -- of Size = (4) -- vaddr (0x7fffffffed10) -- paddr (0xc4d10) 

-- Tick (34597000) -- ISN: (92453) : L from (0x7fffffffed10) -- of Size = (4) -- vaddr (0x7fffffffed10) -- paddr (0xc4d10) 

-- Tick (34597500) -- ISN: (92459) : L from (0x7fffffffed10) -- of Size = (4) -- vaddr (0x7fffffffed10) -- paddr (0xc4d10) 

-- Tick (34597500) -- ISN: (92460) : L from (0x7fffffffed10) -- of Size = (4) -- vaddr (0x7fffffffed10) -- paddr (0xc4d10) 

-- Tick (34597500) -- ISN: (92466) : L from (0x7fffffffed10) -- of Size = (4) -- vaddr (0x7fffffffed10) -- paddr (0xc4d10) 

-- Tick (34597500) -- ISN: (92470) : L from (0x7fffffffed10) -- of Size = (4) -- vaddr (0x7fffffffed10) -- paddr (0xc4d10) 

-- Tick (34599500) -- ISN: (92448) : S -> 0x(0) at (0x6bc440) -- Size = (4) -- vaddr (0x6bc440) -- paddr (0xbc440) 

-- Tick (34599500) -- ISN: (92452) : S -> 0x(1) at (0x7fffffffed10) -- Size = (4) -- vaddr (0x7fffffffed10) -- paddr (0xc4d10) 

-- Tick (34600000) -- ISN: (92465) : S -> 0x(0) at (0x6bc440) -- Size = (4) -- vaddr (0x6bc440) -- paddr (0xbc440) 

-- Tick (34600000) -- ISN: (92469) : S -> 0x(1) at (0x7fffffffed10) -- Size = (4) -- vaddr (0x7fffffffed10) -- paddr (0xc4d10) 

-- Tick (34600000) -- ISN: (92538) : L from (0x6bd0c0) -- of Size = (4) -- vaddr (0x6bd0c0) -- paddr (0xbd0c0) 

-- Sqsh -> ISN (92452)

-- Tick (34609500) -- ISN: (92573) : L from (0x7fffffffed10) -- of Size = (4) -- vaddr (0x7fffffffed10) -- paddr (0xc4d10) 

-- Tick (34610500) -- ISN: (92579) : L from (0x7fffffffed10) -- of Size = (4) -- vaddr (0x7fffffffed10) -- paddr (0xc4d10) 

-- Tick (34610500) -- ISN: (92580) : L from (0x7fffffffed10) -- of Size = (4) -- vaddr (0x7fffffffed10) -- paddr (0xc4d10) 

-- Tick (34610500) -- ISN: (92586) : L from (0x7fffffffed10) -- of Size = (4) -- vaddr (0x7fffffffed10) -- paddr (0xc4d10) 

-- Tick (34611500) -- ISN: (92601) : L from (0x7fffffffed14) -- of Size = (4) -- vaddr (0x7fffffffed14) -- paddr (0xc4d14) 

-- Tick (34612000) -- ISN: (92589) : S -> 0x(2) at (0x7fffffffed10) -- Size = (4) -- vaddr (0x7fffffffed10) -- paddr (0xc4d10) 

-- Tick (34612000) -- ISN: (92597) : S -> 0x(0) at (0x7fffffffed14) -- Size = (4) -- vaddr (0x7fffffffed14) -- paddr (0xc4d14) 

-- Tick (34612500) -- ISN: (92585) : S -> 0x(1) at (0x6bc444) -- Size = (4) -- vaddr (0x6bc444) -- paddr (0xbc444) 

-- Tick (34612500) -- ISN: (92590) : L from (0x7fffffffed10) -- of Size = (4) -- vaddr (0x7fffffffed10) -- paddr (0xc4d10) 

-- Tick (34612500) -- ISN: (92608) : L from (0x6bd0c0) -- of Size = (4) -- vaddr (0x6bd0c0) -- paddr (0xbd0c0) 

-- Sqsh -> ISN (92600)

-- Sqsh -> ISN (92595)

-- Tick (34620000) -- ISN: (92663) : L from (0x7fffffffed10) -- of Size = (4) -- vaddr (0x7fffffffed10) -- paddr (0xc4d10) 

-- Tick (34620000) -- ISN: (92664) : L from (0x7fffffffed10) -- of Size = (4) -- vaddr (0x7fffffffed10) -- paddr (0xc4d10) 

-- Tick (34620000) -- ISN: (92670) : L from (0x7fffffffed10) -- of Size = (4) -- vaddr (0x7fffffffed10) -- paddr (0xc4d10) 

-- Tick (34622000) -- ISN: (92669) : S -> 0x(2) at (0x6bc448) -- Size = (4) -- vaddr (0x6bc448) -- paddr (0xbc448) 

-- Tick (34622000) -- ISN: (92673) : S -> 0x(3) at (0x7fffffffed10) -- Size = (4) -- vaddr (0x7fffffffed10) -- paddr (0xc4d10) 

-- Tick (34622500) -- ISN: (92674) : L from (0x7fffffffed10) -- of Size = (4) -- vaddr (0x7fffffffed10) -- paddr (0xc4d10) 

-- Tick (34622500) -- ISN: (92681) : S -> 0x(0) at (0x7fffffffed14) -- Size = (4) -- vaddr (0x7fffffffed14) -- paddr (0xc4d14) 

-- Tick (34623000) -- ISN: (92685) : L from (0x7fffffffed14) -- of Size = (4) -- vaddr (0x7fffffffed14) -- paddr (0xc4d14) 

-- Tick (34623500) -- ISN: (92692) : L from (0x6bd0c0) -- of Size = (4) -- vaddr (0x6bd0c0) -- paddr (0xbd0c0) 

-- Tick (34624500) -- ISN: (92696) : L from (0x6bf0c0) -- of Size = (4) -- vaddr (0x6bf0c0) -- paddr (0xbf0c0) 

-- Tick (34624500) -- ISN: (92700) : L from (0x6c10c0) -- of Size = (4) -- vaddr (0x6c10c0) -- paddr (0xc10c0) 

-- Tick (34624500) -- ISN: (92707) : L from (0x7fffffffed14) -- of Size = (4) -- vaddr (0x7fffffffed14) -- paddr (0xc4d14) 

-- Sqsh -> ISN (92679)

-- Tick (34630500) -- ISN: (92735) : L from (0x7fffffffed10) -- of Size = (4) -- vaddr (0x7fffffffed10) -- paddr (0xc4d10) 

-- Tick (34630500) -- ISN: (92736) : L from (0x7fffffffed10) -- of Size = (4) -- vaddr (0x7fffffffed10) -- paddr (0xc4d10) 

-- Tick (34630500) -- ISN: (92742) : L from (0x7fffffffed10) -- of Size = (4) -- vaddr (0x7fffffffed10) -- paddr (0xc4d10) 

-- Tick (34632000) -- ISN: (92752) : L from (0x7fffffffed10) -- of Size = (4) -- vaddr (0x7fffffffed10) -- paddr (0xc4d10) 

-- Tick (34632000) -- ISN: (92753) : L from (0x7fffffffed10) -- of Size = (4) -- vaddr (0x7fffffffed10) -- paddr (0xc4d10) 

-- Tick (34632500) -- ISN: (92741) : S -> 0x(3) at (0x6bc44c) -- Size = (4) -- vaddr (0x6bc44c) -- paddr (0xbc44c) 

-- Tick (34632500) -- ISN: (92745) : S -> 0x(4) at (0x7fffffffed10) -- Size = (4) -- vaddr (0x7fffffffed10) -- paddr (0xc4d10) 

-- Tick (34632500) -- ISN: (92759) : L from (0x7fffffffed10) -- of Size = (4) -- vaddr (0x7fffffffed10) -- paddr (0xc4d10) 

-- Tick (34633000) -- ISN: (92746) : L from (0x7fffffffed10) -- of Size = (4) -- vaddr (0x7fffffffed10) -- paddr (0xc4d10) 

-- Tick (34633000) -- ISN: (92769) : L from (0x7fffffffed10) -- of Size = (4) -- vaddr (0x7fffffffed10) -- paddr (0xc4d10) 

-- Tick (34633000) -- ISN: (92770) : L from (0x7fffffffed10) -- of Size = (4) -- vaddr (0x7fffffffed10) -- paddr (0xc4d10) 

-- Sqsh -> ISN (92751)

-- Tick (34637500) -- ISN: (92819) : L from (0x7fffffffed10) -- of Size = (4) -- vaddr (0x7fffffffed10) -- paddr (0xc4d10) 

-- Tick (34637500) -- ISN: (92820) : L from (0x7fffffffed10) -- of Size = (4) -- vaddr (0x7fffffffed10) -- paddr (0xc4d10) 

-- Tick (34637500) -- ISN: (92826) : L from (0x7fffffffed10) -- of Size = (4) -- vaddr (0x7fffffffed10) -- paddr (0xc4d10) 

-- Tick (34639500) -- ISN: (92825) : S -> 0x(4) at (0x6bc450) -- Size = (4) -- vaddr (0x6bc450) -- paddr (0xbc450) 

-- Tick (34639500) -- ISN: (92829) : S -> 0x(5) at (0x7fffffffed10) -- Size = (4) -- vaddr (0x7fffffffed10) -- paddr (0xc4d10) 

-- Tick (34640000) -- ISN: (92830) : L from (0x7fffffffed10) -- of Size = (4) -- vaddr (0x7fffffffed10) -- paddr (0xc4d10) 

-- Tick (34640000) -- ISN: (92836) : L from (0x7fffffffed10) -- of Size = (4) -- vaddr (0x7fffffffed10) -- paddr (0xc4d10) 

-- Tick (34640000) -- ISN: (92837) : L from (0x7fffffffed10) -- of Size = (4) -- vaddr (0x7fffffffed10) -- paddr (0xc4d10) 

-- Tick (34640000) -- ISN: (92843) : L from (0x7fffffffed10) -- of Size = (4) -- vaddr (0x7fffffffed10) -- paddr (0xc4d10) 

-- Tick (34641500) -- ISN: (92846) : S -> 0x(6) at (0x7fffffffed10) -- Size = (4) -- vaddr (0x7fffffffed10) -- paddr (0xc4d10) 

-- Tick (34641500) -- ISN: (92860) : L from (0x7fffffffed10) -- of Size = (4) -- vaddr (0x7fffffffed10) -- paddr (0xc4d10) 

-- Tick (34642000) -- ISN: (92842) : S -> 0x(5) at (0x6bc454) -- Size = (4) -- vaddr (0x6bc454) -- paddr (0xbc454) 

-- Tick (34642000) -- ISN: (92847) : L from (0x7fffffffed10) -- of Size = (4) -- vaddr (0x7fffffffed10) -- paddr (0xc4d10) 

-- Tick (34642000) -- ISN: (92853) : L from (0x7fffffffed10) -- of Size = (4) -- vaddr (0x7fffffffed10) -- paddr (0xc4d10) 

-- Tick (34642000) -- ISN: (92854) : L from (0x7fffffffed10) -- of Size = (4) -- vaddr (0x7fffffffed10) -- paddr (0xc4d10) 

-- Tick (34642500) -- ISN: (92877) : L from (0x7fffffffed10) -- of Size = (4) -- vaddr (0x7fffffffed10) -- paddr (0xc4d10) 

-- Tick (34643000) -- ISN: (92863) : S -> 0x(7) at (0x7fffffffed10) -- Size = (4) -- vaddr (0x7fffffffed10) -- paddr (0xc4d10) 

-- Tick (34643500) -- ISN: (92864) : L from (0x7fffffffed10) -- of Size = (4) -- vaddr (0x7fffffffed10) -- paddr (0xc4d10) 

-- Tick (34643500) -- ISN: (92870) : L from (0x7fffffffed10) -- of Size = (4) -- vaddr (0x7fffffffed10) -- paddr (0xc4d10) 

-- Tick (34643500) -- ISN: (92871) : L from (0x7fffffffed10) -- of Size = (4) -- vaddr (0x7fffffffed10) -- paddr (0xc4d10) 

-- Tick (34643500) -- ISN: (92894) : L from (0x7fffffffed10) -- of Size = (4) -- vaddr (0x7fffffffed10) -- paddr (0xc4d10) 

-- Sqsh -> ISN (92876)

-- Tick (34644000) -- ISN: (92859) : S -> 0x(6) at (0x6bc458) -- Size = (4) -- vaddr (0x6bc458) -- paddr (0xbc458) 

-- Tick (34645500) -- ISN: (92876) : S -> 0x(7) at (0x6bc45c) -- Size = (4) -- vaddr (0x6bc45c) -- paddr (0xbc45c) 

-- Tick (34648000) -- ISN: (92937) : L from (0x7fffffffed10) -- of Size = (4) -- vaddr (0x7fffffffed10) -- paddr (0xc4d10) 

-- Tick (34649500) -- ISN: (92940) : S -> 0x(8) at (0x7fffffffed10) -- Size = (4) -- vaddr (0x7fffffffed10) -- paddr (0xc4d10) 

-- Tick (34650000) -- ISN: (92941) : L from (0x7fffffffed10) -- of Size = (4) -- vaddr (0x7fffffffed10) -- paddr (0xc4d10) 

-- Tick (34650000) -- ISN: (92947) : L from (0x7fffffffed10) -- of Size = (4) -- vaddr (0x7fffffffed10) -- paddr (0xc4d10) 

-- Tick (34650000) -- ISN: (92948) : L from (0x7fffffffed10) -- of Size = (4) -- vaddr (0x7fffffffed10) -- paddr (0xc4d10) 

-- Tick (34650000) -- ISN: (92954) : L from (0x7fffffffed10) -- of Size = (4) -- vaddr (0x7fffffffed10) -- paddr (0xc4d10) 

-- Tick (34651500) -- ISN: (92957) : S -> 0x(9) at (0x7fffffffed10) -- Size = (4) -- vaddr (0x7fffffffed10) -- paddr (0xc4d10) 

-- Tick (34652000) -- ISN: (92953) : S -> 0x(8) at (0x6bc460) -- Size = (4) -- vaddr (0x6bc460) -- paddr (0xbc460) 

-- Tick (34652000) -- ISN: (92958) : L from (0x7fffffffed10) -- of Size = (4) -- vaddr (0x7fffffffed10) -- paddr (0xc4d10) 

-- Tick (34652000) -- ISN: (92964) : L from (0x7fffffffed10) -- of Size = (4) -- vaddr (0x7fffffffed10) -- paddr (0xc4d10) 

-- Tick (34652000) -- ISN: (92965) : L from (0x7fffffffed10) -- of Size = (4) -- vaddr (0x7fffffffed10) -- paddr (0xc4d10) 

-- Tick (34652500) -- ISN: (92971) : L from (0x7fffffffed10) -- of Size = (4) -- vaddr (0x7fffffffed10) -- paddr (0xc4d10) 

-- Tick (34654000) -- ISN: (92970) : S -> 0x(9) at (0x6bc464) -- Size = (4) -- vaddr (0x6bc464) -- paddr (0xbc464) 

-- Tick (34654000) -- ISN: (92974) : S -> 0x(a) at (0x7fffffffed10) -- Size = (4) -- vaddr (0x7fffffffed10) -- paddr (0xc4d10) 

-- Tick (34654500) -- ISN: (92975) : L from (0x7fffffffed10) -- of Size = (4) -- vaddr (0x7fffffffed10) -- paddr (0xc4d10) 

-- Tick (34654500) -- ISN: (92981) : L from (0x7fffffffed10) -- of Size = (4) -- vaddr (0x7fffffffed10) -- paddr (0xc4d10) 

-- Tick (34654500) -- ISN: (92982) : L from (0x7fffffffed10) -- of Size = (4) -- vaddr (0x7fffffffed10) -- paddr (0xc4d10) 

-- Tick (34654500) -- ISN: (92988) : L from (0x7fffffffed10) -- of Size = (4) -- vaddr (0x7fffffffed10) -- paddr (0xc4d10) 

-- Tick (34656000) -- ISN: (92991) : S -> 0x(b) at (0x7fffffffed10) -- Size = (4) -- vaddr (0x7fffffffed10) -- paddr (0xc4d10) 

-- Tick (34656500) -- ISN: (92987) : S -> 0x(a) at (0x6bc468) -- Size = (4) -- vaddr (0x6bc468) -- paddr (0xbc468) 

-- Tick (34656500) -- ISN: (92992) : L from (0x7fffffffed10) -- of Size = (4) -- vaddr (0x7fffffffed10) -- paddr (0xc4d10) 

-- Tick (34656500) -- ISN: (92998) : L from (0x7fffffffed10) -- of Size = (4) -- vaddr (0x7fffffffed10) -- paddr (0xc4d10) 

-- Tick (34656500) -- ISN: (92999) : L from (0x7fffffffed10) -- of Size = (4) -- vaddr (0x7fffffffed10) -- paddr (0xc4d10) 

-- Tick (34657000) -- ISN: (93005) : L from (0x7fffffffed10) -- of Size = (4) -- vaddr (0x7fffffffed10) -- paddr (0xc4d10) 

-- Tick (34658500) -- ISN: (93004) : S -> 0x(b) at (0x6bc46c) -- Size = (4) -- vaddr (0x6bc46c) -- paddr (0xbc46c) 

-- Tick (34658500) -- ISN: (93008) : S -> 0x(c) at (0x7fffffffed10) -- Size = (4) -- vaddr (0x7fffffffed10) -- paddr (0xc4d10) 

-- Tick (34659000) -- ISN: (93009) : L from (0x7fffffffed10) -- of Size = (4) -- vaddr (0x7fffffffed10) -- paddr (0xc4d10) 

-- Tick (34659000) -- ISN: (93015) : L from (0x7fffffffed10) -- of Size = (4) -- vaddr (0x7fffffffed10) -- paddr (0xc4d10) 

-- Tick (34659000) -- ISN: (93016) : L from (0x7fffffffed10) -- of Size = (4) -- vaddr (0x7fffffffed10) -- paddr (0xc4d10) 

-- Tick (34659000) -- ISN: (93022) : L from (0x7fffffffed10) -- of Size = (4) -- vaddr (0x7fffffffed10) -- paddr (0xc4d10) 

-- Tick (34660500) -- ISN: (93025) : S -> 0x(d) at (0x7fffffffed10) -- Size = (4) -- vaddr (0x7fffffffed10) -- paddr (0xc4d10) 

-- Tick (34661000) -- ISN: (93021) : S -> 0x(c) at (0x6bc470) -- Size = (4) -- vaddr (0x6bc470) -- paddr (0xbc470) 

-- Tick (34661000) -- ISN: (93026) : L from (0x7fffffffed10) -- of Size = (4) -- vaddr (0x7fffffffed10) -- paddr (0xc4d10) 

-- Tick (34661000) -- ISN: (93032) : L from (0x7fffffffed10) -- of Size = (4) -- vaddr (0x7fffffffed10) -- paddr (0xc4d10) 

-- Tick (34661000) -- ISN: (93033) : L from (0x7fffffffed10) -- of Size = (4) -- vaddr (0x7fffffffed10) -- paddr (0xc4d10) 

-- Tick (34661500) -- ISN: (93039) : L from (0x7fffffffed10) -- of Size = (4) -- vaddr (0x7fffffffed10) -- paddr (0xc4d10) 

-- Tick (34663000) -- ISN: (93038) : S -> 0x(d) at (0x6bc474) -- Size = (4) -- vaddr (0x6bc474) -- paddr (0xbc474) 

-- Tick (34663000) -- ISN: (93042) : S -> 0x(e) at (0x7fffffffed10) -- Size = (4) -- vaddr (0x7fffffffed10) -- paddr (0xc4d10) 

-- Tick (34663500) -- ISN: (93043) : L from (0x7fffffffed10) -- of Size = (4) -- vaddr (0x7fffffffed10) -- paddr (0xc4d10) 

-- Tick (34663500) -- ISN: (93049) : L from (0x7fffffffed10) -- of Size = (4) -- vaddr (0x7fffffffed10) -- paddr (0xc4d10) 

-- Tick (34663500) -- ISN: (93050) : L from (0x7fffffffed10) -- of Size = (4) -- vaddr (0x7fffffffed10) -- paddr (0xc4d10) 

-- Tick (34663500) -- ISN: (93056) : L from (0x7fffffffed10) -- of Size = (4) -- vaddr (0x7fffffffed10) -- paddr (0xc4d10) 

-- Tick (34665000) -- ISN: (93059) : S -> 0x(f) at (0x7fffffffed10) -- Size = (4) -- vaddr (0x7fffffffed10) -- paddr (0xc4d10) 

-- Tick (34665500) -- ISN: (93055) : S -> 0x(e) at (0x6bc478) -- Size = (4) -- vaddr (0x6bc478) -- paddr (0xbc478) 

-- Tick (34665500) -- ISN: (93060) : L from (0x7fffffffed10) -- of Size = (4) -- vaddr (0x7fffffffed10) -- paddr (0xc4d10) 

-- Tick (34665500) -- ISN: (93066) : L from (0x7fffffffed10) -- of Size = (4) -- vaddr (0x7fffffffed10) -- paddr (0xc4d10) 

-- Tick (34665500) -- ISN: (93067) : L from (0x7fffffffed10) -- of Size = (4) -- vaddr (0x7fffffffed10) -- paddr (0xc4d10) 

-- Tick (34666000) -- ISN: (93073) : L from (0x7fffffffed10) -- of Size = (4) -- vaddr (0x7fffffffed10) -- paddr (0xc4d10) 

-- Tick (34667500) -- ISN: (93072) : S -> 0x(f) at (0x6bc47c) -- Size = (4) -- vaddr (0x6bc47c) -- paddr (0xbc47c) 

-- Tick (34667500) -- ISN: (93076) : S -> 0x(10) at (0x7fffffffed10) -- Size = (4) -- vaddr (0x7fffffffed10) -- paddr (0xc4d10) 

-- Tick (34668000) -- ISN: (93077) : L from (0x7fffffffed10) -- of Size = (4) -- vaddr (0x7fffffffed10) -- paddr (0xc4d10) 

-- Tick (34668000) -- ISN: (93083) : L from (0x7fffffffed10) -- of Size = (4) -- vaddr (0x7fffffffed10) -- paddr (0xc4d10) 

-- Tick (34668000) -- ISN: (93084) : L from (0x7fffffffed10) -- of Size = (4) -- vaddr (0x7fffffffed10) -- paddr (0xc4d10) 

-- Tick (34668000) -- ISN: (93090) : L from (0x7fffffffed10) -- of Size = (4) -- vaddr (0x7fffffffed10) -- paddr (0xc4d10) 

-- Tick (34670000) -- ISN: (93089) : S -> 0x(10) at (0x6bc480) -- Size = (4) -- vaddr (0x6bc480) -- paddr (0xbc480) 

-- Tick (34683000) -- ISN: (93093) : S -> 0x(11) at (0x7fffffffed10) -- Size = (4) -- vaddr (0x7fffffffed10) -- paddr (0xc4d10) 

-- Tick (34683500) -- ISN: (93094) : L from (0x7fffffffed10) -- of Size = (4) -- vaddr (0x7fffffffed10) -- paddr (0xc4d10) 

-- Tick (34684000) -- ISN: (93100) : L from (0x7fffffffed10) -- of Size = (4) -- vaddr (0x7fffffffed10) -- paddr (0xc4d10) 

-- Tick (34684000) -- ISN: (93101) : L from (0x7fffffffed10) -- of Size = (4) -- vaddr (0x7fffffffed10) -- paddr (0xc4d10) 

-- Tick (34684500) -- ISN: (93107) : L from (0x7fffffffed10) -- of Size = (4) -- vaddr (0x7fffffffed10) -- paddr (0xc4d10) 

-- Tick (34686000) -- ISN: (93106) : S -> 0x(11) at (0x6bc484) -- Size = (4) -- vaddr (0x6bc484) -- paddr (0xbc484) 

-- Tick (34686500) -- ISN: (93110) : S -> 0x(12) at (0x7fffffffed10) -- Size = (4) -- vaddr (0x7fffffffed10) -- paddr (0xc4d10) 

-- Tick (34687000) -- ISN: (93111) : L from (0x7fffffffed10) -- of Size = (4) -- vaddr (0x7fffffffed10) -- paddr (0xc4d10) 

-- Tick (34687000) -- ISN: (93117) : L from (0x7fffffffed10) -- of Size = (4) -- vaddr (0x7fffffffed10) -- paddr (0xc4d10) 

-- Tick (34687000) -- ISN: (93118) : L from (0x7fffffffed10) -- of Size = (4) -- vaddr (0x7fffffffed10) -- paddr (0xc4d10) 

-- Tick (34687000) -- ISN: (93124) : L from (0x7fffffffed10) -- of Size = (4) -- vaddr (0x7fffffffed10) -- paddr (0xc4d10) 

-- Tick (34688500) -- ISN: (93127) : S -> 0x(13) at (0x7fffffffed10) -- Size = (4) -- vaddr (0x7fffffffed10) -- paddr (0xc4d10) 

-- Tick (34689000) -- ISN: (93123) : S -> 0x(12) at (0x6bc488) -- Size = (4) -- vaddr (0x6bc488) -- paddr (0xbc488) 

-- Tick (34689000) -- ISN: (93128) : L from (0x7fffffffed10) -- of Size = (4) -- vaddr (0x7fffffffed10) -- paddr (0xc4d10) 

-- Tick (34689000) -- ISN: (93134) : L from (0x7fffffffed10) -- of Size = (4) -- vaddr (0x7fffffffed10) -- paddr (0xc4d10) 

-- Tick (34689000) -- ISN: (93135) : L from (0x7fffffffed10) -- of Size = (4) -- vaddr (0x7fffffffed10) -- paddr (0xc4d10) 

-- Tick (34689500) -- ISN: (93141) : L from (0x7fffffffed10) -- of Size = (4) -- vaddr (0x7fffffffed10) -- paddr (0xc4d10) 

-- Tick (34691000) -- ISN: (93140) : S -> 0x(13) at (0x6bc48c) -- Size = (4) -- vaddr (0x6bc48c) -- paddr (0xbc48c) 

-- Tick (34691000) -- ISN: (93144) : S -> 0x(14) at (0x7fffffffed10) -- Size = (4) -- vaddr (0x7fffffffed10) -- paddr (0xc4d10) 

-- Tick (34691500) -- ISN: (93145) : L from (0x7fffffffed10) -- of Size = (4) -- vaddr (0x7fffffffed10) -- paddr (0xc4d10) 

-- Tick (34691500) -- ISN: (93151) : L from (0x7fffffffed10) -- of Size = (4) -- vaddr (0x7fffffffed10) -- paddr (0xc4d10) 

-- Tick (34691500) -- ISN: (93152) : L from (0x7fffffffed10) -- of Size = (4) -- vaddr (0x7fffffffed10) -- paddr (0xc4d10) 

-- Tick (34691500) -- ISN: (93158) : L from (0x7fffffffed10) -- of Size = (4) -- vaddr (0x7fffffffed10) -- paddr (0xc4d10) 

-- Tick (34693000) -- ISN: (93161) : S -> 0x(15) at (0x7fffffffed10) -- Size = (4) -- vaddr (0x7fffffffed10) -- paddr (0xc4d10) 

-- Tick (34693500) -- ISN: (93157) : S -> 0x(14) at (0x6bc490) -- Size = (4) -- vaddr (0x6bc490) -- paddr (0xbc490) 

-- Tick (34693500) -- ISN: (93162) : L from (0x7fffffffed10) -- of Size = (4) -- vaddr (0x7fffffffed10) -- paddr (0xc4d10) 

-- Tick (34693500) -- ISN: (93168) : L from (0x7fffffffed10) -- of Size = (4) -- vaddr (0x7fffffffed10) -- paddr (0xc4d10) 

-- Tick (34693500) -- ISN: (93169) : L from (0x7fffffffed10) -- of Size = (4) -- vaddr (0x7fffffffed10) -- paddr (0xc4d10) 

-- Tick (34694000) -- ISN: (93175) : L from (0x7fffffffed10) -- of Size = (4) -- vaddr (0x7fffffffed10) -- paddr (0xc4d10) 

-- Tick (34695500) -- ISN: (93174) : S -> 0x(15) at (0x6bc494) -- Size = (4) -- vaddr (0x6bc494) -- paddr (0xbc494) 

-- Tick (34695500) -- ISN: (93178) : S -> 0x(16) at (0x7fffffffed10) -- Size = (4) -- vaddr (0x7fffffffed10) -- paddr (0xc4d10) 

-- Tick (34696000) -- ISN: (93179) : L from (0x7fffffffed10) -- of Size = (4) -- vaddr (0x7fffffffed10) -- paddr (0xc4d10) 

-- Tick (34696000) -- ISN: (93185) : L from (0x7fffffffed10) -- of Size = (4) -- vaddr (0x7fffffffed10) -- paddr (0xc4d10) 

-- Tick (34696000) -- ISN: (93186) : L from (0x7fffffffed10) -- of Size = (4) -- vaddr (0x7fffffffed10) -- paddr (0xc4d10) 

-- Tick (34696000) -- ISN: (93192) : L from (0x7fffffffed10) -- of Size = (4) -- vaddr (0x7fffffffed10) -- paddr (0xc4d10) 

-- Tick (34697500) -- ISN: (93195) : S -> 0x(17) at (0x7fffffffed10) -- Size = (4) -- vaddr (0x7fffffffed10) -- paddr (0xc4d10) 

-- Tick (34698000) -- ISN: (93191) : S -> 0x(16) at (0x6bc498) -- Size = (4) -- vaddr (0x6bc498) -- paddr (0xbc498) 

-- Tick (34698000) -- ISN: (93196) : L from (0x7fffffffed10) -- of Size = (4) -- vaddr (0x7fffffffed10) -- paddr (0xc4d10) 

-- Tick (34698000) -- ISN: (93202) : L from (0x7fffffffed10) -- of Size = (4) -- vaddr (0x7fffffffed10) -- paddr (0xc4d10) 

-- Tick (34698000) -- ISN: (93203) : L from (0x7fffffffed10) -- of Size = (4) -- vaddr (0x7fffffffed10) -- paddr (0xc4d10) 

-- Tick (34698500) -- ISN: (93209) : L from (0x7fffffffed10) -- of Size = (4) -- vaddr (0x7fffffffed10) -- paddr (0xc4d10) 

-- Tick (34700000) -- ISN: (93208) : S -> 0x(17) at (0x6bc49c) -- Size = (4) -- vaddr (0x6bc49c) -- paddr (0xbc49c) 

-- Tick (34700000) -- ISN: (93212) : S -> 0x(18) at (0x7fffffffed10) -- Size = (4) -- vaddr (0x7fffffffed10) -- paddr (0xc4d10) 

-- Tick (34700500) -- ISN: (93213) : L from (0x7fffffffed10) -- of Size = (4) -- vaddr (0x7fffffffed10) -- paddr (0xc4d10) 

-- Tick (34700500) -- ISN: (93219) : L from (0x7fffffffed10) -- of Size = (4) -- vaddr (0x7fffffffed10) -- paddr (0xc4d10) 

-- Tick (34700500) -- ISN: (93220) : L from (0x7fffffffed10) -- of Size = (4) -- vaddr (0x7fffffffed10) -- paddr (0xc4d10) 

-- Tick (34700500) -- ISN: (93226) : L from (0x7fffffffed10) -- of Size = (4) -- vaddr (0x7fffffffed10) -- paddr (0xc4d10) 

-- Tick (34702000) -- ISN: (93229) : S -> 0x(19) at (0x7fffffffed10) -- Size = (4) -- vaddr (0x7fffffffed10) -- paddr (0xc4d10) 

-- Tick (34702500) -- ISN: (93225) : S -> 0x(18) at (0x6bc4a0) -- Size = (4) -- vaddr (0x6bc4a0) -- paddr (0xbc4a0) 

-- Tick (34702500) -- ISN: (93230) : L from (0x7fffffffed10) -- of Size = (4) -- vaddr (0x7fffffffed10) -- paddr (0xc4d10) 

-- Tick (34702500) -- ISN: (93236) : L from (0x7fffffffed10) -- of Size = (4) -- vaddr (0x7fffffffed10) -- paddr (0xc4d10) 

-- Tick (34702500) -- ISN: (93237) : L from (0x7fffffffed10) -- of Size = (4) -- vaddr (0x7fffffffed10) -- paddr (0xc4d10) 

-- Tick (34703000) -- ISN: (93243) : L from (0x7fffffffed10) -- of Size = (4) -- vaddr (0x7fffffffed10) -- paddr (0xc4d10) 

-- Tick (34704500) -- ISN: (93242) : S -> 0x(19) at (0x6bc4a4) -- Size = (4) -- vaddr (0x6bc4a4) -- paddr (0xbc4a4) 

-- Tick (34704500) -- ISN: (93246) : S -> 0x(1a) at (0x7fffffffed10) -- Size = (4) -- vaddr (0x7fffffffed10) -- paddr (0xc4d10) 

-- Tick (34705000) -- ISN: (93247) : L from (0x7fffffffed10) -- of Size = (4) -- vaddr (0x7fffffffed10) -- paddr (0xc4d10) 

-- Tick (34705000) -- ISN: (93253) : L from (0x7fffffffed10) -- of Size = (4) -- vaddr (0x7fffffffed10) -- paddr (0xc4d10) 

-- Tick (34705000) -- ISN: (93254) : L from (0x7fffffffed10) -- of Size = (4) -- vaddr (0x7fffffffed10) -- paddr (0xc4d10) 

-- Tick (34705000) -- ISN: (93260) : L from (0x7fffffffed10) -- of Size = (4) -- vaddr (0x7fffffffed10) -- paddr (0xc4d10) 

-- Tick (34706500) -- ISN: (93263) : S -> 0x(1b) at (0x7fffffffed10) -- Size = (4) -- vaddr (0x7fffffffed10) -- paddr (0xc4d10) 

-- Tick (34707000) -- ISN: (93259) : S -> 0x(1a) at (0x6bc4a8) -- Size = (4) -- vaddr (0x6bc4a8) -- paddr (0xbc4a8) 

-- Tick (34707000) -- ISN: (93264) : L from (0x7fffffffed10) -- of Size = (4) -- vaddr (0x7fffffffed10) -- paddr (0xc4d10) 

-- Tick (34707000) -- ISN: (93270) : L from (0x7fffffffed10) -- of Size = (4) -- vaddr (0x7fffffffed10) -- paddr (0xc4d10) 

-- Tick (34707000) -- ISN: (93271) : L from (0x7fffffffed10) -- of Size = (4) -- vaddr (0x7fffffffed10) -- paddr (0xc4d10) 

-- Tick (34707500) -- ISN: (93277) : L from (0x7fffffffed10) -- of Size = (4) -- vaddr (0x7fffffffed10) -- paddr (0xc4d10) 

-- Tick (34709000) -- ISN: (93276) : S -> 0x(1b) at (0x6bc4ac) -- Size = (4) -- vaddr (0x6bc4ac) -- paddr (0xbc4ac) 

-- Tick (34709000) -- ISN: (93280) : S -> 0x(1c) at (0x7fffffffed10) -- Size = (4) -- vaddr (0x7fffffffed10) -- paddr (0xc4d10) 

-- Tick (34709500) -- ISN: (93281) : L from (0x7fffffffed10) -- of Size = (4) -- vaddr (0x7fffffffed10) -- paddr (0xc4d10) 

-- Tick (34709500) -- ISN: (93287) : L from (0x7fffffffed10) -- of Size = (4) -- vaddr (0x7fffffffed10) -- paddr (0xc4d10) 

-- Tick (34709500) -- ISN: (93288) : L from (0x7fffffffed10) -- of Size = (4) -- vaddr (0x7fffffffed10) -- paddr (0xc4d10) 

-- Tick (34709500) -- ISN: (93294) : L from (0x7fffffffed10) -- of Size = (4) -- vaddr (0x7fffffffed10) -- paddr (0xc4d10) 

-- Tick (34711000) -- ISN: (93297) : S -> 0x(1d) at (0x7fffffffed10) -- Size = (4) -- vaddr (0x7fffffffed10) -- paddr (0xc4d10) 

-- Tick (34711500) -- ISN: (93293) : S -> 0x(1c) at (0x6bc4b0) -- Size = (4) -- vaddr (0x6bc4b0) -- paddr (0xbc4b0) 

-- Tick (34711500) -- ISN: (93298) : L from (0x7fffffffed10) -- of Size = (4) -- vaddr (0x7fffffffed10) -- paddr (0xc4d10) 

-- Tick (34711500) -- ISN: (93304) : L from (0x7fffffffed10) -- of Size = (4) -- vaddr (0x7fffffffed10) -- paddr (0xc4d10) 

-- Tick (34711500) -- ISN: (93305) : L from (0x7fffffffed10) -- of Size = (4) -- vaddr (0x7fffffffed10) -- paddr (0xc4d10) 

-- Tick (34712000) -- ISN: (93311) : L from (0x7fffffffed10) -- of Size = (4) -- vaddr (0x7fffffffed10) -- paddr (0xc4d10) 

-- Tick (34713500) -- ISN: (93310) : S -> 0x(1d) at (0x6bc4b4) -- Size = (4) -- vaddr (0x6bc4b4) -- paddr (0xbc4b4) 

-- Tick (34713500) -- ISN: (93314) : S -> 0x(1e) at (0x7fffffffed10) -- Size = (4) -- vaddr (0x7fffffffed10) -- paddr (0xc4d10) 

-- Tick (34714000) -- ISN: (93315) : L from (0x7fffffffed10) -- of Size = (4) -- vaddr (0x7fffffffed10) -- paddr (0xc4d10) 

-- Tick (34714000) -- ISN: (93321) : L from (0x7fffffffed10) -- of Size = (4) -- vaddr (0x7fffffffed10) -- paddr (0xc4d10) 

-- Tick (34714000) -- ISN: (93322) : L from (0x7fffffffed10) -- of Size = (4) -- vaddr (0x7fffffffed10) -- paddr (0xc4d10) 

-- Tick (34714000) -- ISN: (93328) : L from (0x7fffffffed10) -- of Size = (4) -- vaddr (0x7fffffffed10) -- paddr (0xc4d10) 

-- Tick (34715500) -- ISN: (93331) : S -> 0x(1f) at (0x7fffffffed10) -- Size = (4) -- vaddr (0x7fffffffed10) -- paddr (0xc4d10) 

-- Tick (34716000) -- ISN: (93327) : S -> 0x(1e) at (0x6bc4b8) -- Size = (4) -- vaddr (0x6bc4b8) -- paddr (0xbc4b8) 

-- Tick (34716000) -- ISN: (93332) : L from (0x7fffffffed10) -- of Size = (4) -- vaddr (0x7fffffffed10) -- paddr (0xc4d10) 

-- Tick (34716000) -- ISN: (93338) : L from (0x7fffffffed10) -- of Size = (4) -- vaddr (0x7fffffffed10) -- paddr (0xc4d10) 

-- Tick (34716000) -- ISN: (93339) : L from (0x7fffffffed10) -- of Size = (4) -- vaddr (0x7fffffffed10) -- paddr (0xc4d10) 

-- Tick (34716500) -- ISN: (93345) : L from (0x7fffffffed10) -- of Size = (4) -- vaddr (0x7fffffffed10) -- paddr (0xc4d10) 

-- Tick (34718000) -- ISN: (93344) : S -> 0x(1f) at (0x6bc4bc) -- Size = (4) -- vaddr (0x6bc4bc) -- paddr (0xbc4bc) 

-- Tick (34718000) -- ISN: (93348) : S -> 0x(20) at (0x7fffffffed10) -- Size = (4) -- vaddr (0x7fffffffed10) -- paddr (0xc4d10) 

-- Tick (34718500) -- ISN: (93349) : L from (0x7fffffffed10) -- of Size = (4) -- vaddr (0x7fffffffed10) -- paddr (0xc4d10) 

-- Tick (34718500) -- ISN: (93355) : L from (0x7fffffffed10) -- of Size = (4) -- vaddr (0x7fffffffed10) -- paddr (0xc4d10) 

-- Tick (34718500) -- ISN: (93356) : L from (0x7fffffffed10) -- of Size = (4) -- vaddr (0x7fffffffed10) -- paddr (0xc4d10) 

-- Tick (34718500) -- ISN: (93362) : L from (0x7fffffffed10) -- of Size = (4) -- vaddr (0x7fffffffed10) -- paddr (0xc4d10) 

-- Tick (34720500) -- ISN: (93361) : S -> 0x(20) at (0x6bc4c0) -- Size = (4) -- vaddr (0x6bc4c0) -- paddr (0xbc4c0) 

-- Tick (34765000) -- ISN: (93365) : S -> 0x(21) at (0x7fffffffed10) -- Size = (4) -- vaddr (0x7fffffffed10) -- paddr (0xc4d10) 

-- Tick (34765500) -- ISN: (93366) : L from (0x7fffffffed10) -- of Size = (4) -- vaddr (0x7fffffffed10) -- paddr (0xc4d10) 

-- Tick (34765500) -- ISN: (93372) : L from (0x7fffffffed10) -- of Size = (4) -- vaddr (0x7fffffffed10) -- paddr (0xc4d10) 

-- Tick (34765500) -- ISN: (93373) : L from (0x7fffffffed10) -- of Size = (4) -- vaddr (0x7fffffffed10) -- paddr (0xc4d10) 

-- Tick (34766000) -- ISN: (93379) : L from (0x7fffffffed10) -- of Size = (4) -- vaddr (0x7fffffffed10) -- paddr (0xc4d10) 

-- Tick (34767500) -- ISN: (93378) : S -> 0x(21) at (0x6bc4c4) -- Size = (4) -- vaddr (0x6bc4c4) -- paddr (0xbc4c4) 

-- Tick (34768000) -- ISN: (93382) : S -> 0x(22) at (0x7fffffffed10) -- Size = (4) -- vaddr (0x7fffffffed10) -- paddr (0xc4d10) 

-- Tick (34768500) -- ISN: (93383) : L from (0x7fffffffed10) -- of Size = (4) -- vaddr (0x7fffffffed10) -- paddr (0xc4d10) 

-- Tick (34768500) -- ISN: (93389) : L from (0x7fffffffed10) -- of Size = (4) -- vaddr (0x7fffffffed10) -- paddr (0xc4d10) 

-- Tick (34768500) -- ISN: (93390) : L from (0x7fffffffed10) -- of Size = (4) -- vaddr (0x7fffffffed10) -- paddr (0xc4d10) 

-- Tick (34769000) -- ISN: (93396) : L from (0x7fffffffed10) -- of Size = (4) -- vaddr (0x7fffffffed10) -- paddr (0xc4d10) 

-- Tick (34770500) -- ISN: (93395) : S -> 0x(22) at (0x6bc4c8) -- Size = (4) -- vaddr (0x6bc4c8) -- paddr (0xbc4c8) 

-- Tick (34770500) -- ISN: (93399) : S -> 0x(23) at (0x7fffffffed10) -- Size = (4) -- vaddr (0x7fffffffed10) -- paddr (0xc4d10) 

-- Tick (34771000) -- ISN: (93400) : L from (0x7fffffffed10) -- of Size = (4) -- vaddr (0x7fffffffed10) -- paddr (0xc4d10) 

-- Tick (34771000) -- ISN: (93406) : L from (0x7fffffffed10) -- of Size = (4) -- vaddr (0x7fffffffed10) -- paddr (0xc4d10) 

-- Tick (34771000) -- ISN: (93407) : L from (0x7fffffffed10) -- of Size = (4) -- vaddr (0x7fffffffed10) -- paddr (0xc4d10) 

-- Tick (34771000) -- ISN: (93413) : L from (0x7fffffffed10) -- of Size = (4) -- vaddr (0x7fffffffed10) -- paddr (0xc4d10) 

-- Tick (34772500) -- ISN: (93416) : S -> 0x(24) at (0x7fffffffed10) -- Size = (4) -- vaddr (0x7fffffffed10) -- paddr (0xc4d10) 

-- Tick (34773000) -- ISN: (93412) : S -> 0x(23) at (0x6bc4cc) -- Size = (4) -- vaddr (0x6bc4cc) -- paddr (0xbc4cc) 

-- Tick (34773000) -- ISN: (93417) : L from (0x7fffffffed10) -- of Size = (4) -- vaddr (0x7fffffffed10) -- paddr (0xc4d10) 

-- Tick (34773000) -- ISN: (93423) : L from (0x7fffffffed10) -- of Size = (4) -- vaddr (0x7fffffffed10) -- paddr (0xc4d10) 

-- Tick (34773000) -- ISN: (93424) : L from (0x7fffffffed10) -- of Size = (4) -- vaddr (0x7fffffffed10) -- paddr (0xc4d10) 

-- Tick (34773500) -- ISN: (93430) : L from (0x7fffffffed10) -- of Size = (4) -- vaddr (0x7fffffffed10) -- paddr (0xc4d10) 

-- Tick (34775000) -- ISN: (93429) : S -> 0x(24) at (0x6bc4d0) -- Size = (4) -- vaddr (0x6bc4d0) -- paddr (0xbc4d0) 

-- Tick (34775000) -- ISN: (93433) : S -> 0x(25) at (0x7fffffffed10) -- Size = (4) -- vaddr (0x7fffffffed10) -- paddr (0xc4d10) 

-- Tick (34775500) -- ISN: (93434) : L from (0x7fffffffed10) -- of Size = (4) -- vaddr (0x7fffffffed10) -- paddr (0xc4d10) 

-- Tick (34775500) -- ISN: (93440) : L from (0x7fffffffed10) -- of Size = (4) -- vaddr (0x7fffffffed10) -- paddr (0xc4d10) 

-- Tick (34775500) -- ISN: (93441) : L from (0x7fffffffed10) -- of Size = (4) -- vaddr (0x7fffffffed10) -- paddr (0xc4d10) 

-- Tick (34775500) -- ISN: (93447) : L from (0x7fffffffed10) -- of Size = (4) -- vaddr (0x7fffffffed10) -- paddr (0xc4d10) 

-- Tick (34777000) -- ISN: (93450) : S -> 0x(26) at (0x7fffffffed10) -- Size = (4) -- vaddr (0x7fffffffed10) -- paddr (0xc4d10) 

-- Tick (34777500) -- ISN: (93446) : S -> 0x(25) at (0x6bc4d4) -- Size = (4) -- vaddr (0x6bc4d4) -- paddr (0xbc4d4) 

-- Tick (34777500) -- ISN: (93451) : L from (0x7fffffffed10) -- of Size = (4) -- vaddr (0x7fffffffed10) -- paddr (0xc4d10) 

-- Tick (34777500) -- ISN: (93457) : L from (0x7fffffffed10) -- of Size = (4) -- vaddr (0x7fffffffed10) -- paddr (0xc4d10) 

-- Tick (34777500) -- ISN: (93458) : L from (0x7fffffffed10) -- of Size = (4) -- vaddr (0x7fffffffed10) -- paddr (0xc4d10) 

-- Tick (34778000) -- ISN: (93464) : L from (0x7fffffffed10) -- of Size = (4) -- vaddr (0x7fffffffed10) -- paddr (0xc4d10) 

-- Tick (34779500) -- ISN: (93463) : S -> 0x(26) at (0x6bc4d8) -- Size = (4) -- vaddr (0x6bc4d8) -- paddr (0xbc4d8) 

-- Tick (34779500) -- ISN: (93467) : S -> 0x(27) at (0x7fffffffed10) -- Size = (4) -- vaddr (0x7fffffffed10) -- paddr (0xc4d10) 

-- Tick (34780000) -- ISN: (93468) : L from (0x7fffffffed10) -- of Size = (4) -- vaddr (0x7fffffffed10) -- paddr (0xc4d10) 

-- Tick (34780000) -- ISN: (93474) : L from (0x7fffffffed10) -- of Size = (4) -- vaddr (0x7fffffffed10) -- paddr (0xc4d10) 

-- Tick (34780000) -- ISN: (93475) : L from (0x7fffffffed10) -- of Size = (4) -- vaddr (0x7fffffffed10) -- paddr (0xc4d10) 

-- Tick (34780000) -- ISN: (93481) : L from (0x7fffffffed10) -- of Size = (4) -- vaddr (0x7fffffffed10) -- paddr (0xc4d10) 

-- Tick (34781500) -- ISN: (93484) : S -> 0x(28) at (0x7fffffffed10) -- Size = (4) -- vaddr (0x7fffffffed10) -- paddr (0xc4d10) 

-- Tick (34782000) -- ISN: (93480) : S -> 0x(27) at (0x6bc4dc) -- Size = (4) -- vaddr (0x6bc4dc) -- paddr (0xbc4dc) 

-- Tick (34782000) -- ISN: (93485) : L from (0x7fffffffed10) -- of Size = (4) -- vaddr (0x7fffffffed10) -- paddr (0xc4d10) 

-- Tick (34782000) -- ISN: (93491) : L from (0x7fffffffed10) -- of Size = (4) -- vaddr (0x7fffffffed10) -- paddr (0xc4d10) 

-- Tick (34782000) -- ISN: (93492) : L from (0x7fffffffed10) -- of Size = (4) -- vaddr (0x7fffffffed10) -- paddr (0xc4d10) 

-- Tick (34782500) -- ISN: (93498) : L from (0x7fffffffed10) -- of Size = (4) -- vaddr (0x7fffffffed10) -- paddr (0xc4d10) 

-- Tick (34784000) -- ISN: (93497) : S -> 0x(28) at (0x6bc4e0) -- Size = (4) -- vaddr (0x6bc4e0) -- paddr (0xbc4e0) 

-- Tick (34784000) -- ISN: (93501) : S -> 0x(29) at (0x7fffffffed10) -- Size = (4) -- vaddr (0x7fffffffed10) -- paddr (0xc4d10) 

-- Tick (34784500) -- ISN: (93502) : L from (0x7fffffffed10) -- of Size = (4) -- vaddr (0x7fffffffed10) -- paddr (0xc4d10) 

-- Tick (34784500) -- ISN: (93508) : L from (0x7fffffffed10) -- of Size = (4) -- vaddr (0x7fffffffed10) -- paddr (0xc4d10) 

-- Tick (34784500) -- ISN: (93509) : L from (0x7fffffffed10) -- of Size = (4) -- vaddr (0x7fffffffed10) -- paddr (0xc4d10) 

-- Tick (34784500) -- ISN: (93515) : L from (0x7fffffffed10) -- of Size = (4) -- vaddr (0x7fffffffed10) -- paddr (0xc4d10) 

-- Tick (34786000) -- ISN: (93518) : S -> 0x(2a) at (0x7fffffffed10) -- Size = (4) -- vaddr (0x7fffffffed10) -- paddr (0xc4d10) 

-- Tick (34786500) -- ISN: (93514) : S -> 0x(29) at (0x6bc4e4) -- Size = (4) -- vaddr (0x6bc4e4) -- paddr (0xbc4e4) 

-- Tick (34786500) -- ISN: (93519) : L from (0x7fffffffed10) -- of Size = (4) -- vaddr (0x7fffffffed10) -- paddr (0xc4d10) 

-- Tick (34786500) -- ISN: (93525) : L from (0x7fffffffed10) -- of Size = (4) -- vaddr (0x7fffffffed10) -- paddr (0xc4d10) 

-- Tick (34786500) -- ISN: (93526) : L from (0x7fffffffed10) -- of Size = (4) -- vaddr (0x7fffffffed10) -- paddr (0xc4d10) 

-- Tick (34787000) -- ISN: (93532) : L from (0x7fffffffed10) -- of Size = (4) -- vaddr (0x7fffffffed10) -- paddr (0xc4d10) 

-- Tick (34788500) -- ISN: (93531) : S -> 0x(2a) at (0x6bc4e8) -- Size = (4) -- vaddr (0x6bc4e8) -- paddr (0xbc4e8) 

-- Tick (34788500) -- ISN: (93535) : S -> 0x(2b) at (0x7fffffffed10) -- Size = (4) -- vaddr (0x7fffffffed10) -- paddr (0xc4d10) 

-- Tick (34789000) -- ISN: (93536) : L from (0x7fffffffed10) -- of Size = (4) -- vaddr (0x7fffffffed10) -- paddr (0xc4d10) 

-- Tick (34789000) -- ISN: (93542) : L from (0x7fffffffed10) -- of Size = (4) -- vaddr (0x7fffffffed10) -- paddr (0xc4d10) 

-- Tick (34789000) -- ISN: (93543) : L from (0x7fffffffed10) -- of Size = (4) -- vaddr (0x7fffffffed10) -- paddr (0xc4d10) 

-- Tick (34789000) -- ISN: (93549) : L from (0x7fffffffed10) -- of Size = (4) -- vaddr (0x7fffffffed10) -- paddr (0xc4d10) 

-- Tick (34790500) -- ISN: (93552) : S -> 0x(2c) at (0x7fffffffed10) -- Size = (4) -- vaddr (0x7fffffffed10) -- paddr (0xc4d10) 

-- Tick (34791000) -- ISN: (93548) : S -> 0x(2b) at (0x6bc4ec) -- Size = (4) -- vaddr (0x6bc4ec) -- paddr (0xbc4ec) 

-- Tick (34791000) -- ISN: (93553) : L from (0x7fffffffed10) -- of Size = (4) -- vaddr (0x7fffffffed10) -- paddr (0xc4d10) 

-- Tick (34791000) -- ISN: (93559) : L from (0x7fffffffed10) -- of Size = (4) -- vaddr (0x7fffffffed10) -- paddr (0xc4d10) 

-- Tick (34791000) -- ISN: (93560) : L from (0x7fffffffed10) -- of Size = (4) -- vaddr (0x7fffffffed10) -- paddr (0xc4d10) 

-- Tick (34791500) -- ISN: (93566) : L from (0x7fffffffed10) -- of Size = (4) -- vaddr (0x7fffffffed10) -- paddr (0xc4d10) 

-- Tick (34793000) -- ISN: (93565) : S -> 0x(2c) at (0x6bc4f0) -- Size = (4) -- vaddr (0x6bc4f0) -- paddr (0xbc4f0) 

-- Tick (34793000) -- ISN: (93569) : S -> 0x(2d) at (0x7fffffffed10) -- Size = (4) -- vaddr (0x7fffffffed10) -- paddr (0xc4d10) 

-- Tick (34793500) -- ISN: (93570) : L from (0x7fffffffed10) -- of Size = (4) -- vaddr (0x7fffffffed10) -- paddr (0xc4d10) 

-- Tick (34793500) -- ISN: (93576) : L from (0x7fffffffed10) -- of Size = (4) -- vaddr (0x7fffffffed10) -- paddr (0xc4d10) 

-- Tick (34793500) -- ISN: (93577) : L from (0x7fffffffed10) -- of Size = (4) -- vaddr (0x7fffffffed10) -- paddr (0xc4d10) 

-- Tick (34793500) -- ISN: (93583) : L from (0x7fffffffed10) -- of Size = (4) -- vaddr (0x7fffffffed10) -- paddr (0xc4d10) 

-- Tick (34795000) -- ISN: (93586) : S -> 0x(2e) at (0x7fffffffed10) -- Size = (4) -- vaddr (0x7fffffffed10) -- paddr (0xc4d10) 

-- Tick (34795500) -- ISN: (93582) : S -> 0x(2d) at (0x6bc4f4) -- Size = (4) -- vaddr (0x6bc4f4) -- paddr (0xbc4f4) 

-- Tick (34795500) -- ISN: (93587) : L from (0x7fffffffed10) -- of Size = (4) -- vaddr (0x7fffffffed10) -- paddr (0xc4d10) 

-- Tick (34795500) -- ISN: (93593) : L from (0x7fffffffed10) -- of Size = (4) -- vaddr (0x7fffffffed10) -- paddr (0xc4d10) 

-- Tick (34795500) -- ISN: (93594) : L from (0x7fffffffed10) -- of Size = (4) -- vaddr (0x7fffffffed10) -- paddr (0xc4d10) 

-- Tick (34796000) -- ISN: (93600) : L from (0x7fffffffed10) -- of Size = (4) -- vaddr (0x7fffffffed10) -- paddr (0xc4d10) 

-- Tick (34797500) -- ISN: (93599) : S -> 0x(2e) at (0x6bc4f8) -- Size = (4) -- vaddr (0x6bc4f8) -- paddr (0xbc4f8) 

-- Tick (34797500) -- ISN: (93603) : S -> 0x(2f) at (0x7fffffffed10) -- Size = (4) -- vaddr (0x7fffffffed10) -- paddr (0xc4d10) 

-- Tick (34798000) -- ISN: (93604) : L from (0x7fffffffed10) -- of Size = (4) -- vaddr (0x7fffffffed10) -- paddr (0xc4d10) 

-- Tick (34798000) -- ISN: (93610) : L from (0x7fffffffed10) -- of Size = (4) -- vaddr (0x7fffffffed10) -- paddr (0xc4d10) 

-- Tick (34798000) -- ISN: (93611) : L from (0x7fffffffed10) -- of Size = (4) -- vaddr (0x7fffffffed10) -- paddr (0xc4d10) 

-- Tick (34798000) -- ISN: (93617) : L from (0x7fffffffed10) -- of Size = (4) -- vaddr (0x7fffffffed10) -- paddr (0xc4d10) 

-- Tick (34799500) -- ISN: (93620) : S -> 0x(30) at (0x7fffffffed10) -- Size = (4) -- vaddr (0x7fffffffed10) -- paddr (0xc4d10) 

-- Tick (34800000) -- ISN: (93616) : S -> 0x(2f) at (0x6bc4fc) -- Size = (4) -- vaddr (0x6bc4fc) -- paddr (0xbc4fc) 

-- Tick (34800000) -- ISN: (93621) : L from (0x7fffffffed10) -- of Size = (4) -- vaddr (0x7fffffffed10) -- paddr (0xc4d10) 

-- Tick (34800000) -- ISN: (93627) : L from (0x7fffffffed10) -- of Size = (4) -- vaddr (0x7fffffffed10) -- paddr (0xc4d10) 

-- Tick (34800000) -- ISN: (93628) : L from (0x7fffffffed10) -- of Size = (4) -- vaddr (0x7fffffffed10) -- paddr (0xc4d10) 

-- Tick (34800500) -- ISN: (93634) : L from (0x7fffffffed10) -- of Size = (4) -- vaddr (0x7fffffffed10) -- paddr (0xc4d10) 

-- Tick (34802000) -- ISN: (93633) : S -> 0x(30) at (0x6bc500) -- Size = (4) -- vaddr (0x6bc500) -- paddr (0xbc500) 

-- Tick (34847000) -- ISN: (93637) : S -> 0x(31) at (0x7fffffffed10) -- Size = (4) -- vaddr (0x7fffffffed10) -- paddr (0xc4d10) 

-- Tick (34847500) -- ISN: (93638) : L from (0x7fffffffed10) -- of Size = (4) -- vaddr (0x7fffffffed10) -- paddr (0xc4d10) 

-- Tick (34847500) -- ISN: (93644) : L from (0x7fffffffed10) -- of Size = (4) -- vaddr (0x7fffffffed10) -- paddr (0xc4d10) 

-- Tick (34847500) -- ISN: (93645) : L from (0x7fffffffed10) -- of Size = (4) -- vaddr (0x7fffffffed10) -- paddr (0xc4d10) 

-- Tick (34848000) -- ISN: (93651) : L from (0x7fffffffed10) -- of Size = (4) -- vaddr (0x7fffffffed10) -- paddr (0xc4d10) 

-- Tick (34849500) -- ISN: (93650) : S -> 0x(31) at (0x6bc504) -- Size = (4) -- vaddr (0x6bc504) -- paddr (0xbc504) 

-- Tick (34850000) -- ISN: (93654) : S -> 0x(32) at (0x7fffffffed10) -- Size = (4) -- vaddr (0x7fffffffed10) -- paddr (0xc4d10) 

-- Tick (34850500) -- ISN: (93655) : L from (0x7fffffffed10) -- of Size = (4) -- vaddr (0x7fffffffed10) -- paddr (0xc4d10) 

-- Tick (34850500) -- ISN: (93661) : L from (0x7fffffffed10) -- of Size = (4) -- vaddr (0x7fffffffed10) -- paddr (0xc4d10) 

-- Tick (34850500) -- ISN: (93662) : L from (0x7fffffffed10) -- of Size = (4) -- vaddr (0x7fffffffed10) -- paddr (0xc4d10) 

-- Tick (34851000) -- ISN: (93668) : L from (0x7fffffffed10) -- of Size = (4) -- vaddr (0x7fffffffed10) -- paddr (0xc4d10) 

-- Tick (34852500) -- ISN: (93667) : S -> 0x(32) at (0x6bc508) -- Size = (4) -- vaddr (0x6bc508) -- paddr (0xbc508) 

-- Tick (34852500) -- ISN: (93671) : S -> 0x(33) at (0x7fffffffed10) -- Size = (4) -- vaddr (0x7fffffffed10) -- paddr (0xc4d10) 

-- Tick (34853000) -- ISN: (93672) : L from (0x7fffffffed10) -- of Size = (4) -- vaddr (0x7fffffffed10) -- paddr (0xc4d10) 

-- Tick (34853000) -- ISN: (93678) : L from (0x7fffffffed10) -- of Size = (4) -- vaddr (0x7fffffffed10) -- paddr (0xc4d10) 

-- Tick (34853000) -- ISN: (93679) : L from (0x7fffffffed10) -- of Size = (4) -- vaddr (0x7fffffffed10) -- paddr (0xc4d10) 

-- Tick (34853000) -- ISN: (93685) : L from (0x7fffffffed10) -- of Size = (4) -- vaddr (0x7fffffffed10) -- paddr (0xc4d10) 

-- Tick (34854500) -- ISN: (93688) : S -> 0x(34) at (0x7fffffffed10) -- Size = (4) -- vaddr (0x7fffffffed10) -- paddr (0xc4d10) 

-- Tick (34855000) -- ISN: (93684) : S -> 0x(33) at (0x6bc50c) -- Size = (4) -- vaddr (0x6bc50c) -- paddr (0xbc50c) 

-- Tick (34855000) -- ISN: (93689) : L from (0x7fffffffed10) -- of Size = (4) -- vaddr (0x7fffffffed10) -- paddr (0xc4d10) 

-- Tick (34855000) -- ISN: (93695) : L from (0x7fffffffed10) -- of Size = (4) -- vaddr (0x7fffffffed10) -- paddr (0xc4d10) 

-- Tick (34855000) -- ISN: (93696) : L from (0x7fffffffed10) -- of Size = (4) -- vaddr (0x7fffffffed10) -- paddr (0xc4d10) 

-- Tick (34855500) -- ISN: (93702) : L from (0x7fffffffed10) -- of Size = (4) -- vaddr (0x7fffffffed10) -- paddr (0xc4d10) 

-- Tick (34857000) -- ISN: (93701) : S -> 0x(34) at (0x6bc510) -- Size = (4) -- vaddr (0x6bc510) -- paddr (0xbc510) 

-- Tick (34857000) -- ISN: (93705) : S -> 0x(35) at (0x7fffffffed10) -- Size = (4) -- vaddr (0x7fffffffed10) -- paddr (0xc4d10) 

-- Tick (34857500) -- ISN: (93706) : L from (0x7fffffffed10) -- of Size = (4) -- vaddr (0x7fffffffed10) -- paddr (0xc4d10) 

-- Tick (34857500) -- ISN: (93712) : L from (0x7fffffffed10) -- of Size = (4) -- vaddr (0x7fffffffed10) -- paddr (0xc4d10) 

-- Tick (34857500) -- ISN: (93713) : L from (0x7fffffffed10) -- of Size = (4) -- vaddr (0x7fffffffed10) -- paddr (0xc4d10) 

-- Tick (34857500) -- ISN: (93719) : L from (0x7fffffffed10) -- of Size = (4) -- vaddr (0x7fffffffed10) -- paddr (0xc4d10) 

-- Tick (34859000) -- ISN: (93722) : S -> 0x(36) at (0x7fffffffed10) -- Size = (4) -- vaddr (0x7fffffffed10) -- paddr (0xc4d10) 

-- Tick (34859500) -- ISN: (93718) : S -> 0x(35) at (0x6bc514) -- Size = (4) -- vaddr (0x6bc514) -- paddr (0xbc514) 

-- Tick (34859500) -- ISN: (93723) : L from (0x7fffffffed10) -- of Size = (4) -- vaddr (0x7fffffffed10) -- paddr (0xc4d10) 

-- Tick (34859500) -- ISN: (93729) : L from (0x7fffffffed10) -- of Size = (4) -- vaddr (0x7fffffffed10) -- paddr (0xc4d10) 

-- Tick (34859500) -- ISN: (93730) : L from (0x7fffffffed10) -- of Size = (4) -- vaddr (0x7fffffffed10) -- paddr (0xc4d10) 

-- Tick (34860000) -- ISN: (93736) : L from (0x7fffffffed10) -- of Size = (4) -- vaddr (0x7fffffffed10) -- paddr (0xc4d10) 

-- Tick (34861500) -- ISN: (93735) : S -> 0x(36) at (0x6bc518) -- Size = (4) -- vaddr (0x6bc518) -- paddr (0xbc518) 

-- Tick (34861500) -- ISN: (93739) : S -> 0x(37) at (0x7fffffffed10) -- Size = (4) -- vaddr (0x7fffffffed10) -- paddr (0xc4d10) 

-- Tick (34862000) -- ISN: (93740) : L from (0x7fffffffed10) -- of Size = (4) -- vaddr (0x7fffffffed10) -- paddr (0xc4d10) 

-- Tick (34862000) -- ISN: (93746) : L from (0x7fffffffed10) -- of Size = (4) -- vaddr (0x7fffffffed10) -- paddr (0xc4d10) 

-- Tick (34862000) -- ISN: (93747) : L from (0x7fffffffed10) -- of Size = (4) -- vaddr (0x7fffffffed10) -- paddr (0xc4d10) 

-- Tick (34862000) -- ISN: (93753) : L from (0x7fffffffed10) -- of Size = (4) -- vaddr (0x7fffffffed10) -- paddr (0xc4d10) 

-- Tick (34863500) -- ISN: (93756) : S -> 0x(38) at (0x7fffffffed10) -- Size = (4) -- vaddr (0x7fffffffed10) -- paddr (0xc4d10) 

-- Tick (34864000) -- ISN: (93752) : S -> 0x(37) at (0x6bc51c) -- Size = (4) -- vaddr (0x6bc51c) -- paddr (0xbc51c) 

-- Tick (34864000) -- ISN: (93757) : L from (0x7fffffffed10) -- of Size = (4) -- vaddr (0x7fffffffed10) -- paddr (0xc4d10) 

-- Tick (34864000) -- ISN: (93763) : L from (0x7fffffffed10) -- of Size = (4) -- vaddr (0x7fffffffed10) -- paddr (0xc4d10) 

-- Tick (34864000) -- ISN: (93764) : L from (0x7fffffffed10) -- of Size = (4) -- vaddr (0x7fffffffed10) -- paddr (0xc4d10) 

-- Tick (34864500) -- ISN: (93770) : L from (0x7fffffffed10) -- of Size = (4) -- vaddr (0x7fffffffed10) -- paddr (0xc4d10) 

-- Tick (34866000) -- ISN: (93769) : S -> 0x(38) at (0x6bc520) -- Size = (4) -- vaddr (0x6bc520) -- paddr (0xbc520) 

-- Tick (34866000) -- ISN: (93773) : S -> 0x(39) at (0x7fffffffed10) -- Size = (4) -- vaddr (0x7fffffffed10) -- paddr (0xc4d10) 

-- Tick (34866500) -- ISN: (93774) : L from (0x7fffffffed10) -- of Size = (4) -- vaddr (0x7fffffffed10) -- paddr (0xc4d10) 

-- Tick (34866500) -- ISN: (93780) : L from (0x7fffffffed10) -- of Size = (4) -- vaddr (0x7fffffffed10) -- paddr (0xc4d10) 

-- Tick (34866500) -- ISN: (93781) : L from (0x7fffffffed10) -- of Size = (4) -- vaddr (0x7fffffffed10) -- paddr (0xc4d10) 

-- Tick (34866500) -- ISN: (93787) : L from (0x7fffffffed10) -- of Size = (4) -- vaddr (0x7fffffffed10) -- paddr (0xc4d10) 

-- Tick (34868000) -- ISN: (93790) : S -> 0x(3a) at (0x7fffffffed10) -- Size = (4) -- vaddr (0x7fffffffed10) -- paddr (0xc4d10) 

-- Tick (34868500) -- ISN: (93786) : S -> 0x(39) at (0x6bc524) -- Size = (4) -- vaddr (0x6bc524) -- paddr (0xbc524) 

-- Tick (34868500) -- ISN: (93791) : L from (0x7fffffffed10) -- of Size = (4) -- vaddr (0x7fffffffed10) -- paddr (0xc4d10) 

-- Tick (34868500) -- ISN: (93797) : L from (0x7fffffffed10) -- of Size = (4) -- vaddr (0x7fffffffed10) -- paddr (0xc4d10) 

-- Tick (34868500) -- ISN: (93798) : L from (0x7fffffffed10) -- of Size = (4) -- vaddr (0x7fffffffed10) -- paddr (0xc4d10) 

-- Tick (34869000) -- ISN: (93804) : L from (0x7fffffffed10) -- of Size = (4) -- vaddr (0x7fffffffed10) -- paddr (0xc4d10) 

-- Tick (34870500) -- ISN: (93803) : S -> 0x(3a) at (0x6bc528) -- Size = (4) -- vaddr (0x6bc528) -- paddr (0xbc528) 

-- Tick (34870500) -- ISN: (93807) : S -> 0x(3b) at (0x7fffffffed10) -- Size = (4) -- vaddr (0x7fffffffed10) -- paddr (0xc4d10) 

-- Tick (34871000) -- ISN: (93808) : L from (0x7fffffffed10) -- of Size = (4) -- vaddr (0x7fffffffed10) -- paddr (0xc4d10) 

-- Tick (34871000) -- ISN: (93814) : L from (0x7fffffffed10) -- of Size = (4) -- vaddr (0x7fffffffed10) -- paddr (0xc4d10) 

-- Tick (34871000) -- ISN: (93815) : L from (0x7fffffffed10) -- of Size = (4) -- vaddr (0x7fffffffed10) -- paddr (0xc4d10) 

-- Tick (34871000) -- ISN: (93821) : L from (0x7fffffffed10) -- of Size = (4) -- vaddr (0x7fffffffed10) -- paddr (0xc4d10) 

-- Tick (34872500) -- ISN: (93824) : S -> 0x(3c) at (0x7fffffffed10) -- Size = (4) -- vaddr (0x7fffffffed10) -- paddr (0xc4d10) 

-- Tick (34873000) -- ISN: (93820) : S -> 0x(3b) at (0x6bc52c) -- Size = (4) -- vaddr (0x6bc52c) -- paddr (0xbc52c) 

-- Tick (34873000) -- ISN: (93825) : L from (0x7fffffffed10) -- of Size = (4) -- vaddr (0x7fffffffed10) -- paddr (0xc4d10) 

-- Tick (34873000) -- ISN: (93831) : L from (0x7fffffffed10) -- of Size = (4) -- vaddr (0x7fffffffed10) -- paddr (0xc4d10) 

-- Tick (34873000) -- ISN: (93832) : L from (0x7fffffffed10) -- of Size = (4) -- vaddr (0x7fffffffed10) -- paddr (0xc4d10) 

-- Tick (34873500) -- ISN: (93838) : L from (0x7fffffffed10) -- of Size = (4) -- vaddr (0x7fffffffed10) -- paddr (0xc4d10) 

-- Tick (34875000) -- ISN: (93837) : S -> 0x(3c) at (0x6bc530) -- Size = (4) -- vaddr (0x6bc530) -- paddr (0xbc530) 

-- Tick (34875000) -- ISN: (93841) : S -> 0x(3d) at (0x7fffffffed10) -- Size = (4) -- vaddr (0x7fffffffed10) -- paddr (0xc4d10) 

-- Tick (34875500) -- ISN: (93842) : L from (0x7fffffffed10) -- of Size = (4) -- vaddr (0x7fffffffed10) -- paddr (0xc4d10) 

-- Tick (34875500) -- ISN: (93848) : L from (0x7fffffffed10) -- of Size = (4) -- vaddr (0x7fffffffed10) -- paddr (0xc4d10) 

-- Tick (34875500) -- ISN: (93849) : L from (0x7fffffffed10) -- of Size = (4) -- vaddr (0x7fffffffed10) -- paddr (0xc4d10) 

-- Tick (34875500) -- ISN: (93855) : L from (0x7fffffffed10) -- of Size = (4) -- vaddr (0x7fffffffed10) -- paddr (0xc4d10) 

-- Tick (34877000) -- ISN: (93858) : S -> 0x(3e) at (0x7fffffffed10) -- Size = (4) -- vaddr (0x7fffffffed10) -- paddr (0xc4d10) 

-- Tick (34877500) -- ISN: (93854) : S -> 0x(3d) at (0x6bc534) -- Size = (4) -- vaddr (0x6bc534) -- paddr (0xbc534) 

-- Tick (34877500) -- ISN: (93859) : L from (0x7fffffffed10) -- of Size = (4) -- vaddr (0x7fffffffed10) -- paddr (0xc4d10) 

-- Tick (34877500) -- ISN: (93865) : L from (0x7fffffffed10) -- of Size = (4) -- vaddr (0x7fffffffed10) -- paddr (0xc4d10) 

-- Tick (34877500) -- ISN: (93866) : L from (0x7fffffffed10) -- of Size = (4) -- vaddr (0x7fffffffed10) -- paddr (0xc4d10) 

-- Tick (34878000) -- ISN: (93872) : L from (0x7fffffffed10) -- of Size = (4) -- vaddr (0x7fffffffed10) -- paddr (0xc4d10) 

-- Tick (34879500) -- ISN: (93871) : S -> 0x(3e) at (0x6bc538) -- Size = (4) -- vaddr (0x6bc538) -- paddr (0xbc538) 

-- Tick (34879500) -- ISN: (93875) : S -> 0x(3f) at (0x7fffffffed10) -- Size = (4) -- vaddr (0x7fffffffed10) -- paddr (0xc4d10) 

-- Tick (34880000) -- ISN: (93876) : L from (0x7fffffffed10) -- of Size = (4) -- vaddr (0x7fffffffed10) -- paddr (0xc4d10) 

-- Tick (34880000) -- ISN: (93882) : L from (0x7fffffffed10) -- of Size = (4) -- vaddr (0x7fffffffed10) -- paddr (0xc4d10) 

-- Tick (34880000) -- ISN: (93883) : L from (0x7fffffffed10) -- of Size = (4) -- vaddr (0x7fffffffed10) -- paddr (0xc4d10) 

-- Tick (34880000) -- ISN: (93889) : L from (0x7fffffffed10) -- of Size = (4) -- vaddr (0x7fffffffed10) -- paddr (0xc4d10) 

-- Tick (34881500) -- ISN: (93892) : S -> 0x(40) at (0x7fffffffed10) -- Size = (4) -- vaddr (0x7fffffffed10) -- paddr (0xc4d10) 

-- Tick (34882000) -- ISN: (93888) : S -> 0x(3f) at (0x6bc53c) -- Size = (4) -- vaddr (0x6bc53c) -- paddr (0xbc53c) 

-- Tick (34882000) -- ISN: (93893) : L from (0x7fffffffed10) -- of Size = (4) -- vaddr (0x7fffffffed10) -- paddr (0xc4d10) 

-- Tick (34882000) -- ISN: (93899) : L from (0x7fffffffed10) -- of Size = (4) -- vaddr (0x7fffffffed10) -- paddr (0xc4d10) 

-- Tick (34882000) -- ISN: (93900) : L from (0x7fffffffed10) -- of Size = (4) -- vaddr (0x7fffffffed10) -- paddr (0xc4d10) 

-- Tick (34882500) -- ISN: (93906) : L from (0x7fffffffed10) -- of Size = (4) -- vaddr (0x7fffffffed10) -- paddr (0xc4d10) 

-- Tick (34884000) -- ISN: (93905) : S -> 0x(40) at (0x6bc540) -- Size = (4) -- vaddr (0x6bc540) -- paddr (0xbc540) 

-- Tick (34929000) -- ISN: (93909) : S -> 0x(41) at (0x7fffffffed10) -- Size = (4) -- vaddr (0x7fffffffed10) -- paddr (0xc4d10) 

-- Tick (34929500) -- ISN: (93910) : L from (0x7fffffffed10) -- of Size = (4) -- vaddr (0x7fffffffed10) -- paddr (0xc4d10) 

-- Tick (34929500) -- ISN: (93916) : L from (0x7fffffffed10) -- of Size = (4) -- vaddr (0x7fffffffed10) -- paddr (0xc4d10) 

-- Tick (34929500) -- ISN: (93917) : L from (0x7fffffffed10) -- of Size = (4) -- vaddr (0x7fffffffed10) -- paddr (0xc4d10) 

-- Tick (34930000) -- ISN: (93923) : L from (0x7fffffffed10) -- of Size = (4) -- vaddr (0x7fffffffed10) -- paddr (0xc4d10) 

-- Tick (34931500) -- ISN: (93922) : S -> 0x(41) at (0x6bc544) -- Size = (4) -- vaddr (0x6bc544) -- paddr (0xbc544) 

-- Tick (34932000) -- ISN: (93926) : S -> 0x(42) at (0x7fffffffed10) -- Size = (4) -- vaddr (0x7fffffffed10) -- paddr (0xc4d10) 

-- Tick (34932500) -- ISN: (93927) : L from (0x7fffffffed10) -- of Size = (4) -- vaddr (0x7fffffffed10) -- paddr (0xc4d10) 

-- Tick (34932500) -- ISN: (93933) : L from (0x7fffffffed10) -- of Size = (4) -- vaddr (0x7fffffffed10) -- paddr (0xc4d10) 

-- Tick (34932500) -- ISN: (93934) : L from (0x7fffffffed10) -- of Size = (4) -- vaddr (0x7fffffffed10) -- paddr (0xc4d10) 

-- Tick (34933000) -- ISN: (93940) : L from (0x7fffffffed10) -- of Size = (4) -- vaddr (0x7fffffffed10) -- paddr (0xc4d10) 

-- Tick (34934500) -- ISN: (93939) : S -> 0x(42) at (0x6bc548) -- Size = (4) -- vaddr (0x6bc548) -- paddr (0xbc548) 

-- Tick (34934500) -- ISN: (93943) : S -> 0x(43) at (0x7fffffffed10) -- Size = (4) -- vaddr (0x7fffffffed10) -- paddr (0xc4d10) 

-- Tick (34935000) -- ISN: (93944) : L from (0x7fffffffed10) -- of Size = (4) -- vaddr (0x7fffffffed10) -- paddr (0xc4d10) 

-- Tick (34935000) -- ISN: (93950) : L from (0x7fffffffed10) -- of Size = (4) -- vaddr (0x7fffffffed10) -- paddr (0xc4d10) 

-- Tick (34935000) -- ISN: (93951) : L from (0x7fffffffed10) -- of Size = (4) -- vaddr (0x7fffffffed10) -- paddr (0xc4d10) 

-- Tick (34935000) -- ISN: (93957) : L from (0x7fffffffed10) -- of Size = (4) -- vaddr (0x7fffffffed10) -- paddr (0xc4d10) 

-- Tick (34936500) -- ISN: (93960) : S -> 0x(44) at (0x7fffffffed10) -- Size = (4) -- vaddr (0x7fffffffed10) -- paddr (0xc4d10) 

-- Tick (34937000) -- ISN: (93956) : S -> 0x(43) at (0x6bc54c) -- Size = (4) -- vaddr (0x6bc54c) -- paddr (0xbc54c) 

-- Tick (34937000) -- ISN: (93961) : L from (0x7fffffffed10) -- of Size = (4) -- vaddr (0x7fffffffed10) -- paddr (0xc4d10) 

-- Tick (34937000) -- ISN: (93967) : L from (0x7fffffffed10) -- of Size = (4) -- vaddr (0x7fffffffed10) -- paddr (0xc4d10) 

-- Tick (34937000) -- ISN: (93968) : L from (0x7fffffffed10) -- of Size = (4) -- vaddr (0x7fffffffed10) -- paddr (0xc4d10) 

-- Tick (34937500) -- ISN: (93974) : L from (0x7fffffffed10) -- of Size = (4) -- vaddr (0x7fffffffed10) -- paddr (0xc4d10) 

-- Tick (34939000) -- ISN: (93973) : S -> 0x(44) at (0x6bc550) -- Size = (4) -- vaddr (0x6bc550) -- paddr (0xbc550) 

-- Tick (34939000) -- ISN: (93977) : S -> 0x(45) at (0x7fffffffed10) -- Size = (4) -- vaddr (0x7fffffffed10) -- paddr (0xc4d10) 

-- Tick (34939500) -- ISN: (93978) : L from (0x7fffffffed10) -- of Size = (4) -- vaddr (0x7fffffffed10) -- paddr (0xc4d10) 

-- Tick (34939500) -- ISN: (93984) : L from (0x7fffffffed10) -- of Size = (4) -- vaddr (0x7fffffffed10) -- paddr (0xc4d10) 

-- Tick (34939500) -- ISN: (93985) : L from (0x7fffffffed10) -- of Size = (4) -- vaddr (0x7fffffffed10) -- paddr (0xc4d10) 

-- Tick (34939500) -- ISN: (93991) : L from (0x7fffffffed10) -- of Size = (4) -- vaddr (0x7fffffffed10) -- paddr (0xc4d10) 

-- Tick (34941000) -- ISN: (93994) : S -> 0x(46) at (0x7fffffffed10) -- Size = (4) -- vaddr (0x7fffffffed10) -- paddr (0xc4d10) 

-- Tick (34941500) -- ISN: (93990) : S -> 0x(45) at (0x6bc554) -- Size = (4) -- vaddr (0x6bc554) -- paddr (0xbc554) 

-- Tick (34941500) -- ISN: (93995) : L from (0x7fffffffed10) -- of Size = (4) -- vaddr (0x7fffffffed10) -- paddr (0xc4d10) 

-- Tick (34941500) -- ISN: (94001) : L from (0x7fffffffed10) -- of Size = (4) -- vaddr (0x7fffffffed10) -- paddr (0xc4d10) 

-- Tick (34941500) -- ISN: (94002) : L from (0x7fffffffed10) -- of Size = (4) -- vaddr (0x7fffffffed10) -- paddr (0xc4d10) 

-- Tick (34942000) -- ISN: (94008) : L from (0x7fffffffed10) -- of Size = (4) -- vaddr (0x7fffffffed10) -- paddr (0xc4d10) 

-- Tick (34943500) -- ISN: (94007) : S -> 0x(46) at (0x6bc558) -- Size = (4) -- vaddr (0x6bc558) -- paddr (0xbc558) 

-- Tick (34943500) -- ISN: (94011) : S -> 0x(47) at (0x7fffffffed10) -- Size = (4) -- vaddr (0x7fffffffed10) -- paddr (0xc4d10) 

-- Tick (34944000) -- ISN: (94012) : L from (0x7fffffffed10) -- of Size = (4) -- vaddr (0x7fffffffed10) -- paddr (0xc4d10) 

-- Tick (34944000) -- ISN: (94018) : L from (0x7fffffffed10) -- of Size = (4) -- vaddr (0x7fffffffed10) -- paddr (0xc4d10) 

-- Tick (34944000) -- ISN: (94019) : L from (0x7fffffffed10) -- of Size = (4) -- vaddr (0x7fffffffed10) -- paddr (0xc4d10) 

-- Tick (34944000) -- ISN: (94025) : L from (0x7fffffffed10) -- of Size = (4) -- vaddr (0x7fffffffed10) -- paddr (0xc4d10) 

-- Tick (34945500) -- ISN: (94028) : S -> 0x(48) at (0x7fffffffed10) -- Size = (4) -- vaddr (0x7fffffffed10) -- paddr (0xc4d10) 

-- Tick (34946000) -- ISN: (94024) : S -> 0x(47) at (0x6bc55c) -- Size = (4) -- vaddr (0x6bc55c) -- paddr (0xbc55c) 

-- Tick (34946000) -- ISN: (94029) : L from (0x7fffffffed10) -- of Size = (4) -- vaddr (0x7fffffffed10) -- paddr (0xc4d10) 

-- Tick (34946000) -- ISN: (94035) : L from (0x7fffffffed10) -- of Size = (4) -- vaddr (0x7fffffffed10) -- paddr (0xc4d10) 

-- Tick (34946000) -- ISN: (94036) : L from (0x7fffffffed10) -- of Size = (4) -- vaddr (0x7fffffffed10) -- paddr (0xc4d10) 

-- Tick (34946500) -- ISN: (94042) : L from (0x7fffffffed10) -- of Size = (4) -- vaddr (0x7fffffffed10) -- paddr (0xc4d10) 

-- Tick (34948000) -- ISN: (94041) : S -> 0x(48) at (0x6bc560) -- Size = (4) -- vaddr (0x6bc560) -- paddr (0xbc560) 

-- Tick (34948000) -- ISN: (94045) : S -> 0x(49) at (0x7fffffffed10) -- Size = (4) -- vaddr (0x7fffffffed10) -- paddr (0xc4d10) 

-- Tick (34948500) -- ISN: (94046) : L from (0x7fffffffed10) -- of Size = (4) -- vaddr (0x7fffffffed10) -- paddr (0xc4d10) 

-- Tick (34948500) -- ISN: (94052) : L from (0x7fffffffed10) -- of Size = (4) -- vaddr (0x7fffffffed10) -- paddr (0xc4d10) 

-- Tick (34948500) -- ISN: (94053) : L from (0x7fffffffed10) -- of Size = (4) -- vaddr (0x7fffffffed10) -- paddr (0xc4d10) 

-- Tick (34948500) -- ISN: (94059) : L from (0x7fffffffed10) -- of Size = (4) -- vaddr (0x7fffffffed10) -- paddr (0xc4d10) 

-- Tick (34950000) -- ISN: (94062) : S -> 0x(4a) at (0x7fffffffed10) -- Size = (4) -- vaddr (0x7fffffffed10) -- paddr (0xc4d10) 

-- Tick (34950500) -- ISN: (94058) : S -> 0x(49) at (0x6bc564) -- Size = (4) -- vaddr (0x6bc564) -- paddr (0xbc564) 

-- Tick (34950500) -- ISN: (94063) : L from (0x7fffffffed10) -- of Size = (4) -- vaddr (0x7fffffffed10) -- paddr (0xc4d10) 

-- Tick (34950500) -- ISN: (94069) : L from (0x7fffffffed10) -- of Size = (4) -- vaddr (0x7fffffffed10) -- paddr (0xc4d10) 

-- Tick (34950500) -- ISN: (94070) : L from (0x7fffffffed10) -- of Size = (4) -- vaddr (0x7fffffffed10) -- paddr (0xc4d10) 

-- Tick (34951000) -- ISN: (94076) : L from (0x7fffffffed10) -- of Size = (4) -- vaddr (0x7fffffffed10) -- paddr (0xc4d10) 

-- Tick (34952500) -- ISN: (94075) : S -> 0x(4a) at (0x6bc568) -- Size = (4) -- vaddr (0x6bc568) -- paddr (0xbc568) 

-- Tick (34952500) -- ISN: (94079) : S -> 0x(4b) at (0x7fffffffed10) -- Size = (4) -- vaddr (0x7fffffffed10) -- paddr (0xc4d10) 

-- Tick (34953000) -- ISN: (94080) : L from (0x7fffffffed10) -- of Size = (4) -- vaddr (0x7fffffffed10) -- paddr (0xc4d10) 

-- Tick (34953000) -- ISN: (94086) : L from (0x7fffffffed10) -- of Size = (4) -- vaddr (0x7fffffffed10) -- paddr (0xc4d10) 

-- Tick (34953000) -- ISN: (94087) : L from (0x7fffffffed10) -- of Size = (4) -- vaddr (0x7fffffffed10) -- paddr (0xc4d10) 

-- Tick (34953000) -- ISN: (94093) : L from (0x7fffffffed10) -- of Size = (4) -- vaddr (0x7fffffffed10) -- paddr (0xc4d10) 

-- Tick (34954500) -- ISN: (94096) : S -> 0x(4c) at (0x7fffffffed10) -- Size = (4) -- vaddr (0x7fffffffed10) -- paddr (0xc4d10) 

-- Tick (34955000) -- ISN: (94092) : S -> 0x(4b) at (0x6bc56c) -- Size = (4) -- vaddr (0x6bc56c) -- paddr (0xbc56c) 

-- Tick (34955000) -- ISN: (94097) : L from (0x7fffffffed10) -- of Size = (4) -- vaddr (0x7fffffffed10) -- paddr (0xc4d10) 

-- Tick (34955000) -- ISN: (94103) : L from (0x7fffffffed10) -- of Size = (4) -- vaddr (0x7fffffffed10) -- paddr (0xc4d10) 

-- Tick (34955000) -- ISN: (94104) : L from (0x7fffffffed10) -- of Size = (4) -- vaddr (0x7fffffffed10) -- paddr (0xc4d10) 

-- Tick (34955500) -- ISN: (94110) : L from (0x7fffffffed10) -- of Size = (4) -- vaddr (0x7fffffffed10) -- paddr (0xc4d10) 

-- Tick (34957000) -- ISN: (94109) : S -> 0x(4c) at (0x6bc570) -- Size = (4) -- vaddr (0x6bc570) -- paddr (0xbc570) 

-- Tick (34957000) -- ISN: (94113) : S -> 0x(4d) at (0x7fffffffed10) -- Size = (4) -- vaddr (0x7fffffffed10) -- paddr (0xc4d10) 

-- Tick (34957500) -- ISN: (94114) : L from (0x7fffffffed10) -- of Size = (4) -- vaddr (0x7fffffffed10) -- paddr (0xc4d10) 

-- Tick (34957500) -- ISN: (94120) : L from (0x7fffffffed10) -- of Size = (4) -- vaddr (0x7fffffffed10) -- paddr (0xc4d10) 

-- Tick (34957500) -- ISN: (94121) : L from (0x7fffffffed10) -- of Size = (4) -- vaddr (0x7fffffffed10) -- paddr (0xc4d10) 

-- Tick (34957500) -- ISN: (94127) : L from (0x7fffffffed10) -- of Size = (4) -- vaddr (0x7fffffffed10) -- paddr (0xc4d10) 

-- Tick (34959000) -- ISN: (94130) : S -> 0x(4e) at (0x7fffffffed10) -- Size = (4) -- vaddr (0x7fffffffed10) -- paddr (0xc4d10) 

-- Tick (34959500) -- ISN: (94126) : S -> 0x(4d) at (0x6bc574) -- Size = (4) -- vaddr (0x6bc574) -- paddr (0xbc574) 

-- Tick (34959500) -- ISN: (94131) : L from (0x7fffffffed10) -- of Size = (4) -- vaddr (0x7fffffffed10) -- paddr (0xc4d10) 

-- Tick (34959500) -- ISN: (94137) : L from (0x7fffffffed10) -- of Size = (4) -- vaddr (0x7fffffffed10) -- paddr (0xc4d10) 

-- Tick (34959500) -- ISN: (94138) : L from (0x7fffffffed10) -- of Size = (4) -- vaddr (0x7fffffffed10) -- paddr (0xc4d10) 

-- Tick (34960000) -- ISN: (94144) : L from (0x7fffffffed10) -- of Size = (4) -- vaddr (0x7fffffffed10) -- paddr (0xc4d10) 

-- Tick (34961500) -- ISN: (94143) : S -> 0x(4e) at (0x6bc578) -- Size = (4) -- vaddr (0x6bc578) -- paddr (0xbc578) 

-- Tick (34961500) -- ISN: (94147) : S -> 0x(4f) at (0x7fffffffed10) -- Size = (4) -- vaddr (0x7fffffffed10) -- paddr (0xc4d10) 

-- Tick (34962000) -- ISN: (94148) : L from (0x7fffffffed10) -- of Size = (4) -- vaddr (0x7fffffffed10) -- paddr (0xc4d10) 

-- Tick (34962000) -- ISN: (94154) : L from (0x7fffffffed10) -- of Size = (4) -- vaddr (0x7fffffffed10) -- paddr (0xc4d10) 

-- Tick (34962000) -- ISN: (94155) : L from (0x7fffffffed10) -- of Size = (4) -- vaddr (0x7fffffffed10) -- paddr (0xc4d10) 

-- Tick (34962000) -- ISN: (94161) : L from (0x7fffffffed10) -- of Size = (4) -- vaddr (0x7fffffffed10) -- paddr (0xc4d10) 

-- Tick (34963500) -- ISN: (94164) : S -> 0x(50) at (0x7fffffffed10) -- Size = (4) -- vaddr (0x7fffffffed10) -- paddr (0xc4d10) 

-- Tick (34964000) -- ISN: (94160) : S -> 0x(4f) at (0x6bc57c) -- Size = (4) -- vaddr (0x6bc57c) -- paddr (0xbc57c) 

-- Tick (34964000) -- ISN: (94165) : L from (0x7fffffffed10) -- of Size = (4) -- vaddr (0x7fffffffed10) -- paddr (0xc4d10) 

-- Tick (34964000) -- ISN: (94171) : L from (0x7fffffffed10) -- of Size = (4) -- vaddr (0x7fffffffed10) -- paddr (0xc4d10) 

-- Tick (34964000) -- ISN: (94172) : L from (0x7fffffffed10) -- of Size = (4) -- vaddr (0x7fffffffed10) -- paddr (0xc4d10) 

-- Tick (34964500) -- ISN: (94178) : L from (0x7fffffffed10) -- of Size = (4) -- vaddr (0x7fffffffed10) -- paddr (0xc4d10) 

-- Tick (34966000) -- ISN: (94177) : S -> 0x(50) at (0x6bc580) -- Size = (4) -- vaddr (0x6bc580) -- paddr (0xbc580) 

-- Tick (35011000) -- ISN: (94181) : S -> 0x(51) at (0x7fffffffed10) -- Size = (4) -- vaddr (0x7fffffffed10) -- paddr (0xc4d10) 

-- Tick (35011500) -- ISN: (94182) : L from (0x7fffffffed10) -- of Size = (4) -- vaddr (0x7fffffffed10) -- paddr (0xc4d10) 

-- Tick (35011500) -- ISN: (94188) : L from (0x7fffffffed10) -- of Size = (4) -- vaddr (0x7fffffffed10) -- paddr (0xc4d10) 

-- Tick (35011500) -- ISN: (94189) : L from (0x7fffffffed10) -- of Size = (4) -- vaddr (0x7fffffffed10) -- paddr (0xc4d10) 

-- Tick (35012000) -- ISN: (94195) : L from (0x7fffffffed10) -- of Size = (4) -- vaddr (0x7fffffffed10) -- paddr (0xc4d10) 

-- Tick (35013500) -- ISN: (94194) : S -> 0x(51) at (0x6bc584) -- Size = (4) -- vaddr (0x6bc584) -- paddr (0xbc584) 

-- Tick (35014000) -- ISN: (94198) : S -> 0x(52) at (0x7fffffffed10) -- Size = (4) -- vaddr (0x7fffffffed10) -- paddr (0xc4d10) 

-- Tick (35014500) -- ISN: (94199) : L from (0x7fffffffed10) -- of Size = (4) -- vaddr (0x7fffffffed10) -- paddr (0xc4d10) 

-- Tick (35014500) -- ISN: (94205) : L from (0x7fffffffed10) -- of Size = (4) -- vaddr (0x7fffffffed10) -- paddr (0xc4d10) 

-- Tick (35014500) -- ISN: (94206) : L from (0x7fffffffed10) -- of Size = (4) -- vaddr (0x7fffffffed10) -- paddr (0xc4d10) 

-- Tick (35015000) -- ISN: (94212) : L from (0x7fffffffed10) -- of Size = (4) -- vaddr (0x7fffffffed10) -- paddr (0xc4d10) 

-- Tick (35016500) -- ISN: (94211) : S -> 0x(52) at (0x6bc588) -- Size = (4) -- vaddr (0x6bc588) -- paddr (0xbc588) 

-- Tick (35016500) -- ISN: (94215) : S -> 0x(53) at (0x7fffffffed10) -- Size = (4) -- vaddr (0x7fffffffed10) -- paddr (0xc4d10) 

-- Tick (35017000) -- ISN: (94216) : L from (0x7fffffffed10) -- of Size = (4) -- vaddr (0x7fffffffed10) -- paddr (0xc4d10) 

-- Tick (35017000) -- ISN: (94222) : L from (0x7fffffffed10) -- of Size = (4) -- vaddr (0x7fffffffed10) -- paddr (0xc4d10) 

-- Tick (35017000) -- ISN: (94223) : L from (0x7fffffffed10) -- of Size = (4) -- vaddr (0x7fffffffed10) -- paddr (0xc4d10) 

-- Tick (35017000) -- ISN: (94229) : L from (0x7fffffffed10) -- of Size = (4) -- vaddr (0x7fffffffed10) -- paddr (0xc4d10) 

-- Tick (35018500) -- ISN: (94232) : S -> 0x(54) at (0x7fffffffed10) -- Size = (4) -- vaddr (0x7fffffffed10) -- paddr (0xc4d10) 

-- Tick (35019000) -- ISN: (94228) : S -> 0x(53) at (0x6bc58c) -- Size = (4) -- vaddr (0x6bc58c) -- paddr (0xbc58c) 

-- Tick (35019000) -- ISN: (94233) : L from (0x7fffffffed10) -- of Size = (4) -- vaddr (0x7fffffffed10) -- paddr (0xc4d10) 

-- Tick (35019000) -- ISN: (94239) : L from (0x7fffffffed10) -- of Size = (4) -- vaddr (0x7fffffffed10) -- paddr (0xc4d10) 

-- Tick (35019000) -- ISN: (94240) : L from (0x7fffffffed10) -- of Size = (4) -- vaddr (0x7fffffffed10) -- paddr (0xc4d10) 

-- Tick (35019500) -- ISN: (94246) : L from (0x7fffffffed10) -- of Size = (4) -- vaddr (0x7fffffffed10) -- paddr (0xc4d10) 

-- Tick (35021000) -- ISN: (94245) : S -> 0x(54) at (0x6bc590) -- Size = (4) -- vaddr (0x6bc590) -- paddr (0xbc590) 

-- Tick (35021000) -- ISN: (94249) : S -> 0x(55) at (0x7fffffffed10) -- Size = (4) -- vaddr (0x7fffffffed10) -- paddr (0xc4d10) 

-- Tick (35021500) -- ISN: (94250) : L from (0x7fffffffed10) -- of Size = (4) -- vaddr (0x7fffffffed10) -- paddr (0xc4d10) 

-- Tick (35021500) -- ISN: (94256) : L from (0x7fffffffed10) -- of Size = (4) -- vaddr (0x7fffffffed10) -- paddr (0xc4d10) 

-- Tick (35021500) -- ISN: (94257) : L from (0x7fffffffed10) -- of Size = (4) -- vaddr (0x7fffffffed10) -- paddr (0xc4d10) 

-- Tick (35021500) -- ISN: (94263) : L from (0x7fffffffed10) -- of Size = (4) -- vaddr (0x7fffffffed10) -- paddr (0xc4d10) 

-- Tick (35023000) -- ISN: (94266) : S -> 0x(56) at (0x7fffffffed10) -- Size = (4) -- vaddr (0x7fffffffed10) -- paddr (0xc4d10) 

-- Tick (35023500) -- ISN: (94262) : S -> 0x(55) at (0x6bc594) -- Size = (4) -- vaddr (0x6bc594) -- paddr (0xbc594) 

-- Tick (35023500) -- ISN: (94267) : L from (0x7fffffffed10) -- of Size = (4) -- vaddr (0x7fffffffed10) -- paddr (0xc4d10) 

-- Tick (35023500) -- ISN: (94273) : L from (0x7fffffffed10) -- of Size = (4) -- vaddr (0x7fffffffed10) -- paddr (0xc4d10) 

-- Tick (35023500) -- ISN: (94274) : L from (0x7fffffffed10) -- of Size = (4) -- vaddr (0x7fffffffed10) -- paddr (0xc4d10) 

-- Tick (35024000) -- ISN: (94280) : L from (0x7fffffffed10) -- of Size = (4) -- vaddr (0x7fffffffed10) -- paddr (0xc4d10) 

-- Tick (35025500) -- ISN: (94279) : S -> 0x(56) at (0x6bc598) -- Size = (4) -- vaddr (0x6bc598) -- paddr (0xbc598) 

-- Tick (35025500) -- ISN: (94283) : S -> 0x(57) at (0x7fffffffed10) -- Size = (4) -- vaddr (0x7fffffffed10) -- paddr (0xc4d10) 

-- Tick (35026000) -- ISN: (94284) : L from (0x7fffffffed10) -- of Size = (4) -- vaddr (0x7fffffffed10) -- paddr (0xc4d10) 

-- Tick (35026000) -- ISN: (94290) : L from (0x7fffffffed10) -- of Size = (4) -- vaddr (0x7fffffffed10) -- paddr (0xc4d10) 

-- Tick (35026000) -- ISN: (94291) : L from (0x7fffffffed10) -- of Size = (4) -- vaddr (0x7fffffffed10) -- paddr (0xc4d10) 

-- Tick (35026000) -- ISN: (94297) : L from (0x7fffffffed10) -- of Size = (4) -- vaddr (0x7fffffffed10) -- paddr (0xc4d10) 

-- Tick (35027500) -- ISN: (94300) : S -> 0x(58) at (0x7fffffffed10) -- Size = (4) -- vaddr (0x7fffffffed10) -- paddr (0xc4d10) 

-- Tick (35028000) -- ISN: (94296) : S -> 0x(57) at (0x6bc59c) -- Size = (4) -- vaddr (0x6bc59c) -- paddr (0xbc59c) 

-- Tick (35028000) -- ISN: (94301) : L from (0x7fffffffed10) -- of Size = (4) -- vaddr (0x7fffffffed10) -- paddr (0xc4d10) 

-- Tick (35028000) -- ISN: (94307) : L from (0x7fffffffed10) -- of Size = (4) -- vaddr (0x7fffffffed10) -- paddr (0xc4d10) 

-- Tick (35028000) -- ISN: (94308) : L from (0x7fffffffed10) -- of Size = (4) -- vaddr (0x7fffffffed10) -- paddr (0xc4d10) 

-- Tick (35028500) -- ISN: (94314) : L from (0x7fffffffed10) -- of Size = (4) -- vaddr (0x7fffffffed10) -- paddr (0xc4d10) 

-- Tick (35030000) -- ISN: (94313) : S -> 0x(58) at (0x6bc5a0) -- Size = (4) -- vaddr (0x6bc5a0) -- paddr (0xbc5a0) 

-- Tick (35030000) -- ISN: (94317) : S -> 0x(59) at (0x7fffffffed10) -- Size = (4) -- vaddr (0x7fffffffed10) -- paddr (0xc4d10) 

-- Tick (35030500) -- ISN: (94318) : L from (0x7fffffffed10) -- of Size = (4) -- vaddr (0x7fffffffed10) -- paddr (0xc4d10) 

-- Tick (35030500) -- ISN: (94324) : L from (0x7fffffffed10) -- of Size = (4) -- vaddr (0x7fffffffed10) -- paddr (0xc4d10) 

-- Tick (35030500) -- ISN: (94325) : L from (0x7fffffffed10) -- of Size = (4) -- vaddr (0x7fffffffed10) -- paddr (0xc4d10) 

-- Tick (35030500) -- ISN: (94331) : L from (0x7fffffffed10) -- of Size = (4) -- vaddr (0x7fffffffed10) -- paddr (0xc4d10) 

-- Tick (35032000) -- ISN: (94334) : S -> 0x(5a) at (0x7fffffffed10) -- Size = (4) -- vaddr (0x7fffffffed10) -- paddr (0xc4d10) 

-- Tick (35032500) -- ISN: (94330) : S -> 0x(59) at (0x6bc5a4) -- Size = (4) -- vaddr (0x6bc5a4) -- paddr (0xbc5a4) 

-- Tick (35032500) -- ISN: (94335) : L from (0x7fffffffed10) -- of Size = (4) -- vaddr (0x7fffffffed10) -- paddr (0xc4d10) 

-- Tick (35032500) -- ISN: (94341) : L from (0x7fffffffed10) -- of Size = (4) -- vaddr (0x7fffffffed10) -- paddr (0xc4d10) 

-- Tick (35032500) -- ISN: (94342) : L from (0x7fffffffed10) -- of Size = (4) -- vaddr (0x7fffffffed10) -- paddr (0xc4d10) 

-- Tick (35033000) -- ISN: (94348) : L from (0x7fffffffed10) -- of Size = (4) -- vaddr (0x7fffffffed10) -- paddr (0xc4d10) 

-- Tick (35034500) -- ISN: (94347) : S -> 0x(5a) at (0x6bc5a8) -- Size = (4) -- vaddr (0x6bc5a8) -- paddr (0xbc5a8) 

-- Tick (35034500) -- ISN: (94351) : S -> 0x(5b) at (0x7fffffffed10) -- Size = (4) -- vaddr (0x7fffffffed10) -- paddr (0xc4d10) 

-- Tick (35035000) -- ISN: (94352) : L from (0x7fffffffed10) -- of Size = (4) -- vaddr (0x7fffffffed10) -- paddr (0xc4d10) 

-- Tick (35035000) -- ISN: (94358) : L from (0x7fffffffed10) -- of Size = (4) -- vaddr (0x7fffffffed10) -- paddr (0xc4d10) 

-- Tick (35035000) -- ISN: (94359) : L from (0x7fffffffed10) -- of Size = (4) -- vaddr (0x7fffffffed10) -- paddr (0xc4d10) 

-- Tick (35035000) -- ISN: (94365) : L from (0x7fffffffed10) -- of Size = (4) -- vaddr (0x7fffffffed10) -- paddr (0xc4d10) 

-- Tick (35036500) -- ISN: (94368) : S -> 0x(5c) at (0x7fffffffed10) -- Size = (4) -- vaddr (0x7fffffffed10) -- paddr (0xc4d10) 

-- Tick (35037000) -- ISN: (94364) : S -> 0x(5b) at (0x6bc5ac) -- Size = (4) -- vaddr (0x6bc5ac) -- paddr (0xbc5ac) 

-- Tick (35037000) -- ISN: (94369) : L from (0x7fffffffed10) -- of Size = (4) -- vaddr (0x7fffffffed10) -- paddr (0xc4d10) 

-- Tick (35037000) -- ISN: (94375) : L from (0x7fffffffed10) -- of Size = (4) -- vaddr (0x7fffffffed10) -- paddr (0xc4d10) 

-- Tick (35037000) -- ISN: (94376) : L from (0x7fffffffed10) -- of Size = (4) -- vaddr (0x7fffffffed10) -- paddr (0xc4d10) 

-- Tick (35037500) -- ISN: (94382) : L from (0x7fffffffed10) -- of Size = (4) -- vaddr (0x7fffffffed10) -- paddr (0xc4d10) 

-- Tick (35039000) -- ISN: (94381) : S -> 0x(5c) at (0x6bc5b0) -- Size = (4) -- vaddr (0x6bc5b0) -- paddr (0xbc5b0) 

-- Tick (35039000) -- ISN: (94385) : S -> 0x(5d) at (0x7fffffffed10) -- Size = (4) -- vaddr (0x7fffffffed10) -- paddr (0xc4d10) 

-- Tick (35039500) -- ISN: (94386) : L from (0x7fffffffed10) -- of Size = (4) -- vaddr (0x7fffffffed10) -- paddr (0xc4d10) 

-- Tick (35039500) -- ISN: (94392) : L from (0x7fffffffed10) -- of Size = (4) -- vaddr (0x7fffffffed10) -- paddr (0xc4d10) 

-- Tick (35039500) -- ISN: (94393) : L from (0x7fffffffed10) -- of Size = (4) -- vaddr (0x7fffffffed10) -- paddr (0xc4d10) 

-- Tick (35039500) -- ISN: (94399) : L from (0x7fffffffed10) -- of Size = (4) -- vaddr (0x7fffffffed10) -- paddr (0xc4d10) 

-- Tick (35041000) -- ISN: (94402) : S -> 0x(5e) at (0x7fffffffed10) -- Size = (4) -- vaddr (0x7fffffffed10) -- paddr (0xc4d10) 

-- Tick (35041500) -- ISN: (94398) : S -> 0x(5d) at (0x6bc5b4) -- Size = (4) -- vaddr (0x6bc5b4) -- paddr (0xbc5b4) 

-- Tick (35041500) -- ISN: (94403) : L from (0x7fffffffed10) -- of Size = (4) -- vaddr (0x7fffffffed10) -- paddr (0xc4d10) 

-- Tick (35041500) -- ISN: (94409) : L from (0x7fffffffed10) -- of Size = (4) -- vaddr (0x7fffffffed10) -- paddr (0xc4d10) 

-- Tick (35041500) -- ISN: (94410) : L from (0x7fffffffed10) -- of Size = (4) -- vaddr (0x7fffffffed10) -- paddr (0xc4d10) 

-- Tick (35042000) -- ISN: (94416) : L from (0x7fffffffed10) -- of Size = (4) -- vaddr (0x7fffffffed10) -- paddr (0xc4d10) 

-- Tick (35043500) -- ISN: (94415) : S -> 0x(5e) at (0x6bc5b8) -- Size = (4) -- vaddr (0x6bc5b8) -- paddr (0xbc5b8) 

-- Tick (35043500) -- ISN: (94419) : S -> 0x(5f) at (0x7fffffffed10) -- Size = (4) -- vaddr (0x7fffffffed10) -- paddr (0xc4d10) 

-- Tick (35044000) -- ISN: (94420) : L from (0x7fffffffed10) -- of Size = (4) -- vaddr (0x7fffffffed10) -- paddr (0xc4d10) 

-- Tick (35044000) -- ISN: (94426) : L from (0x7fffffffed10) -- of Size = (4) -- vaddr (0x7fffffffed10) -- paddr (0xc4d10) 

-- Tick (35044000) -- ISN: (94427) : L from (0x7fffffffed10) -- of Size = (4) -- vaddr (0x7fffffffed10) -- paddr (0xc4d10) 

-- Tick (35044000) -- ISN: (94433) : L from (0x7fffffffed10) -- of Size = (4) -- vaddr (0x7fffffffed10) -- paddr (0xc4d10) 

-- Tick (35045500) -- ISN: (94436) : S -> 0x(60) at (0x7fffffffed10) -- Size = (4) -- vaddr (0x7fffffffed10) -- paddr (0xc4d10) 

-- Tick (35046000) -- ISN: (94432) : S -> 0x(5f) at (0x6bc5bc) -- Size = (4) -- vaddr (0x6bc5bc) -- paddr (0xbc5bc) 

-- Tick (35046000) -- ISN: (94437) : L from (0x7fffffffed10) -- of Size = (4) -- vaddr (0x7fffffffed10) -- paddr (0xc4d10) 

-- Tick (35046000) -- ISN: (94443) : L from (0x7fffffffed10) -- of Size = (4) -- vaddr (0x7fffffffed10) -- paddr (0xc4d10) 

-- Tick (35046000) -- ISN: (94444) : L from (0x7fffffffed10) -- of Size = (4) -- vaddr (0x7fffffffed10) -- paddr (0xc4d10) 

-- Tick (35046500) -- ISN: (94450) : L from (0x7fffffffed10) -- of Size = (4) -- vaddr (0x7fffffffed10) -- paddr (0xc4d10) 

[...]

-- Tick (36847500) -- ISN: (101755) : L from (0x6bd0c0) -- of Size = (4) -- vaddr (0x6bd0c0) -- paddr (0xbd0c0) 

-- Tick (36848500) -- ISN: (101759) : L from (0x6bf0c0) -- of Size = (4) -- vaddr (0x6bf0c0) -- paddr (0xbf0c0) 

-- Tick (36848500) -- ISN: (101763) : L from (0x6c10c0) -- of Size = (4) -- vaddr (0x6c10c0) -- paddr (0xc10c0) 

-- Tick (36849000) -- ISN: (101731) : L from (0x6bc421) -- of Size = (1) -- vaddr (0x6bc421) -- paddr (0xbc421) 

-- Tick (36849000) -- ISN: (101757) : S -> 0x(0) at (0x6bc424) -- Size = (4) -- vaddr (0x6bc424) -- paddr (0xbc424) 

-- Tick (36849000) -- ISN: (101767) : L from (0x6c30c0) -- of Size = (4) -- vaddr (0x6c30c0) -- paddr (0xc30c0) 

-- Tick (36849000) -- ISN: (101770) : L from (0x7fffffffed14) -- of Size = (4) -- vaddr (0x7fffffffed14) -- paddr (0xc4d14) 

-- Tick (36849500) -- ISN: (101774) : S -> 0x(f2) at (0x7fffffffed08) -- Size = (8) -- vaddr (0x7fffffffed08) -- paddr (0xc4d08) 

-- Tick (36850000) -- ISN: (101761) : S -> 0x(0) at (0x6bc424) -- Size = (4) -- vaddr (0x6bc424) -- paddr (0xbc424) 

-- Tick (36850000) -- ISN: (101777) : S -> 0x(20) at (0x7fffffffed00) -- Size = (8) -- vaddr (0x7fffffffed00) -- paddr (0xc4d00) 

-- Tick (36850500) -- ISN: (101765) : S -> 0x(0) at (0x6bc424) -- Size = (4) -- vaddr (0x6bc424) -- paddr (0xbc424) 

-- Tick (36850500) -- ISN: (101782) : L from (0x6b90f0) -- of Size = (4) -- vaddr (0x6b90f0) -- paddr (0xb90f0) 

-- Tick (36851000) -- ISN: (101769) : S -> 0x(0) at (0x6bc424) -- Size = (4) -- vaddr (0x6bc424) -- paddr (0xbc424) 

-- Tick (36851000) -- ISN: (101780) : S -> 0x(62) at (0x7fffffffecfc) -- Size = (4) -- vaddr (0x7fffffffecfc) -- paddr (0xc4cfc) 

-- Tick (36851500) -- ISN: (101783) : L from (0x7fffffffecfc) -- of Size = (4) -- vaddr (0x7fffffffecfc) -- paddr (0xc4cfc) 

-- Tick (36851500) -- ISN: (101788) : L from (0x7fffffffecfc) -- of Size = (4) -- vaddr (0x7fffffffecfc) -- paddr (0xc4cfc) 

-- Tick (36852000) -- ISN: (101736) : S -> 0x(0) at (0x6bc428) -- Size = (4) -- vaddr (0x6bc428) -- paddr (0xbc428) 

-- Tick (36852000) -- ISN: (101804) : L from (0x7fffffffed00) -- of Size = (8) -- vaddr (0x7fffffffed00) -- paddr (0xc4d00) 

-- Tick (36853000) -- ISN: (101807) : L from (0x7fffffffed08) -- of Size = (8) -- vaddr (0x7fffffffed08) -- paddr (0xc4d08) 

-- Tick (36853500) -- ISN: (101793) : L from (0x6bc5c8) -- of Size = (4) -- vaddr (0x6bc5c8) -- paddr (0xbc5c8) 

-- Tick (36853500) -- ISN: (101810) : L from (0x7fffffffed14) -- of Size = (4) -- vaddr (0x7fffffffed14) -- paddr (0xc4d14) 

-- Tick (36855000) -- ISN: (101813) : S -> 0x(63) at (0x7fffffffed14) -- Size = (4) -- vaddr (0x7fffffffed14) -- paddr (0xc4d14) 

-- Tick (36855500) -- ISN: (101797) : L from (0x6bc422) -- of Size = (1) -- vaddr (0x6bc422) -- paddr (0xbc422) 

-- Tick (36855500) -- ISN: (101814) : L from (0x7fffffffed14) -- of Size = (4) -- vaddr (0x7fffffffed14) -- paddr (0xc4d14) 

-- Tick (36856000) -- ISN: (101821) : L from (0x6bd0c0) -- of Size = (4) -- vaddr (0x6bd0c0) -- paddr (0xbd0c0) 

-- Tick (36857000) -- ISN: (101825) : L from (0x6bf0c0) -- of Size = (4) -- vaddr (0x6bf0c0) -- paddr (0xbf0c0) 

-- Tick (36857000) -- ISN: (101829) : L from (0x6c10c0) -- of Size = (4) -- vaddr (0x6c10c0) -- paddr (0xc10c0) 

-- Tick (36857000) -- ISN: (101836) : L from (0x7fffffffed14) -- of Size = (4) -- vaddr (0x7fffffffed14) -- paddr (0xc4d14) 

-- Tick (36857500) -- ISN: (101823) : S -> 0x(0) at (0x6bc424) -- Size = (4) -- vaddr (0x6bc424) -- paddr (0xbc424) 

-- Tick (36857500) -- ISN: (101833) : L from (0x6c30c0) -- of Size = (4) -- vaddr (0x6c30c0) -- paddr (0xc30c0) 

-- Tick (36858000) -- ISN: (101840) : S -> 0x(f2) at (0x7fffffffed08) -- Size = (8) -- vaddr (0x7fffffffed08) -- paddr (0xc4d08) 

-- Tick (36858500) -- ISN: (101802) : S -> 0x(0) at (0x6bc428) -- Size = (4) -- vaddr (0x6bc428) -- paddr (0xbc428) 

-- Tick (36858500) -- ISN: (101827) : S -> 0x(0) at (0x6bc424) -- Size = (4) -- vaddr (0x6bc424) -- paddr (0xbc424) 

-- Tick (36858500) -- ISN: (101843) : S -> 0x(20) at (0x7fffffffed00) -- Size = (8) -- vaddr (0x7fffffffed00) -- paddr (0xc4d00) 

-- Tick (36859000) -- ISN: (101831) : S -> 0x(0) at (0x6bc424) -- Size = (4) -- vaddr (0x6bc424) -- paddr (0xbc424) 

-- Tick (36859000) -- ISN: (101835) : S -> 0x(0) at (0x6bc424) -- Size = (4) -- vaddr (0x6bc424) -- paddr (0xbc424) 

-- Tick (36859000) -- ISN: (101848) : L from (0x6b90f0) -- of Size = (4) -- vaddr (0x6b90f0) -- paddr (0xb90f0) 

-- Tick (36859500) -- ISN: (101846) : S -> 0x(63) at (0x7fffffffecfc) -- Size = (4) -- vaddr (0x7fffffffecfc) -- paddr (0xc4cfc) 

-- Tick (36860000) -- ISN: (101849) : L from (0x7fffffffecfc) -- of Size = (4) -- vaddr (0x7fffffffecfc) -- paddr (0xc4cfc) 

-- Tick (36860000) -- ISN: (101854) : L from (0x7fffffffecfc) -- of Size = (4) -- vaddr (0x7fffffffecfc) -- paddr (0xc4cfc) 

-- Tick (36862000) -- ISN: (101859) : L from (0x6bc5cc) -- of Size = (4) -- vaddr (0x6bc5cc) -- paddr (0xbc5cc) 

-- Tick (36864000) -- ISN: (101863) : L from (0x6bc423) -- of Size = (1) -- vaddr (0x6bc423) -- paddr (0xbc423) 

-- Tick (36867500) -- ISN: (101868) : S -> 0x(0) at (0x6bc428) -- Size = (4) -- vaddr (0x6bc428) -- paddr (0xbc428) 

-- Tick (36868500) -- ISN: (101870) : L from (0x7fffffffed00) -- of Size = (8) -- vaddr (0x7fffffffed00) -- paddr (0xc4d00) 

-- Tick (36869000) -- ISN: (101873) : L from (0x7fffffffed08) -- of Size = (8) -- vaddr (0x7fffffffed08) -- paddr (0xc4d08) 

-- Tick (36870000) -- ISN: (101876) : L from (0x7fffffffed14) -- of Size = (4) -- vaddr (0x7fffffffed14) -- paddr (0xc4d14) 

-- Tick (36871000) -- ISN: (101887) : L from (0x6bd0c0) -- of Size = (4) -- vaddr (0x6bd0c0) -- paddr (0xbd0c0) 

-- Tick (36871500) -- ISN: (101879) : S -> 0x(64) at (0x7fffffffed14) -- Size = (4) -- vaddr (0x7fffffffed14) -- paddr (0xc4d14) 

-- Tick (36871500) -- ISN: (101891) : L from (0x6bf0c0) -- of Size = (4) -- vaddr (0x6bf0c0) -- paddr (0xbf0c0) 

-- Tick (36871500) -- ISN: (101895) : L from (0x6c10c0) -- of Size = (4) -- vaddr (0x6c10c0) -- paddr (0xc10c0) 

-- Tick (36872000) -- ISN: (101880) : L from (0x7fffffffed14) -- of Size = (4) -- vaddr (0x7fffffffed14) -- paddr (0xc4d14) 

-- Tick (36872000) -- ISN: (101899) : L from (0x6c30c0) -- of Size = (4) -- vaddr (0x6c30c0) -- paddr (0xc30c0) 

-- Tick (36872000) -- ISN: (101902) : L from (0x7fffffffed14) -- of Size = (4) -- vaddr (0x7fffffffed14) -- paddr (0xc4d14) 

-- Tick (36872500) -- ISN: (101906) : S -> 0x(f2) at (0x7fffffffed08) -- Size = (8) -- vaddr (0x7fffffffed08) -- paddr (0xc4d08) 

-- Tick (36872500) -- ISN: (101909) : S -> 0x(20) at (0x7fffffffed00) -- Size = (8) -- vaddr (0x7fffffffed00) -- paddr (0xc4d00) 

-- Tick (36873000) -- ISN: (101893) : S -> 0x(0) at (0x6bc424) -- Size = (4) -- vaddr (0x6bc424) -- paddr (0xbc424) 

-- Tick (36873000) -- ISN: (101914) : L from (0x6b90f0) -- of Size = (4) -- vaddr (0x6b90f0) -- paddr (0xb90f0) 

-- Tick (36873500) -- ISN: (101912) : S -> 0x(64) at (0x7fffffffecfc) -- Size = (4) -- vaddr (0x7fffffffecfc) -- paddr (0xc4cfc) 

-- Tick (36873500) -- ISN: (101936) : L from (0x7fffffffed00) -- of Size = (8) -- vaddr (0x7fffffffed00) -- paddr (0xc4d00) 

-- Tick (36874000) -- ISN: (101897) : S -> 0x(0) at (0x6bc424) -- Size = (4) -- vaddr (0x6bc424) -- paddr (0xbc424) 

-- Tick (36874000) -- ISN: (101901) : S -> 0x(0) at (0x6bc424) -- Size = (4) -- vaddr (0x6bc424) -- paddr (0xbc424) 

-- Tick (36874000) -- ISN: (101915) : L from (0x7fffffffecfc) -- of Size = (4) -- vaddr (0x7fffffffecfc) -- paddr (0xc4cfc) 

-- Tick (36874000) -- ISN: (101920) : L from (0x7fffffffecfc) -- of Size = (4) -- vaddr (0x7fffffffecfc) -- paddr (0xc4cfc) 

-- Sqsh -> ISN (101885)

-- Tick (36882000) -- ISN: (101955) : L from (0x6bd0c0) -- of Size = (4) -- vaddr (0x6bd0c0) -- paddr (0xbd0c0) 

-- Tick (36882000) -- ISN: (101959) : L from (0x6bf0c0) -- of Size = (4) -- vaddr (0x6bf0c0) -- paddr (0xbf0c0) 

-- Tick (36883000) -- ISN: (101963) : L from (0x6c10c0) -- of Size = (4) -- vaddr (0x6c10c0) -- paddr (0xc10c0) 

-- Tick (36883000) -- ISN: (101967) : L from (0x6c30c0) -- of Size = (4) -- vaddr (0x6c30c0) -- paddr (0xc30c0) 

-- Tick (36883500) -- ISN: (101961) : S -> 0x(0) at (0x6bc424) -- Size = (4) -- vaddr (0x6bc424) -- paddr (0xbc424) 

-- Tick (36883500) -- ISN: (101973) : S -> 0x(3d) at (0x7fffffffed08) -- Size = (8) -- vaddr (0x7fffffffed08) -- paddr (0xc4d08) 

-- Tick (36883500) -- ISN: (101977) : S -> 0x(0) at (0x7fffffffed10) -- Size = (4) -- vaddr (0x7fffffffed10) -- paddr (0xc4d10) 

-- Tick (36883500) -- ISN: (101981) : L from (0x7fffffffed10) -- of Size = (4) -- vaddr (0x7fffffffed10) -- paddr (0xc4d10) 

-- Tick (36884000) -- ISN: (101985) : L from (0x7fffffffed10) -- of Size = (4) -- vaddr (0x7fffffffed10) -- paddr (0xc4d10) 

-- Sqsh -> ISN (101975)

-- Tick (36884500) -- ISN: (101965) : S -> 0x(0) at (0x6bc424) -- Size = (4) -- vaddr (0x6bc424) -- paddr (0xbc424) 

-- Tick (36885000) -- ISN: (101969) : S -> 0x(0) at (0x6bc424) -- Size = (4) -- vaddr (0x6bc424) -- paddr (0xbc424) 

-- Tick (36889500) -- ISN: (102049) : S -> 0x(20) at (0x7fffffffed00) -- Size = (8) -- vaddr (0x7fffffffed00) -- paddr (0xc4d00) 

-- Tick (36890000) -- ISN: (102054) : L from (0x6b90f0) -- of Size = (4) -- vaddr (0x6b90f0) -- paddr (0xb90f0) 

-- Tick (36890500) -- ISN: (102052) : S -> 0x(69) at (0x7fffffffecfc) -- Size = (4) -- vaddr (0x7fffffffecfc) -- paddr (0xc4cfc) 

-- Tick (36891000) -- ISN: (102055) : L from (0x7fffffffecfc) -- of Size = (4) -- vaddr (0x7fffffffecfc) -- paddr (0xc4cfc) 

-- Tick (36891000) -- ISN: (102060) : L from (0x7fffffffecfc) -- of Size = (4) -- vaddr (0x7fffffffecfc) -- paddr (0xc4cfc) 

-- Tick (36891500) -- ISN: (102076) : L from (0x7fffffffed00) -- of Size = (8) -- vaddr (0x7fffffffed00) -- paddr (0xc4d00) 

-- Tick (36892000) -- ISN: (102079) : L from (0x7fffffffed08) -- of Size = (8) -- vaddr (0x7fffffffed08) -- paddr (0xc4d08) 

-- Tick (36893000) -- ISN: (102065) : L from (0x6bc5e4) -- of Size = (4) -- vaddr (0x6bc5e4) -- paddr (0xbc5e4) 

-- Tick (36893000) -- ISN: (102087) : L from (0x7fffffffed10) -- of Size = (4) -- vaddr (0x7fffffffed10) -- paddr (0xc4d10) 

-- Sqsh -> ISN (102059)

-- Tick (36899000) -- ISN: (102130) : L from (0x7fffffffed00) -- of Size = (8) -- vaddr (0x7fffffffed00) -- paddr (0xc4d00) 

-- Tick (36899500) -- ISN: (102133) : L from (0x7fffffffed08) -- of Size = (8) -- vaddr (0x7fffffffed08) -- paddr (0xc4d08) 

-- Tick (36900500) -- ISN: (102137) : S -> 0x(0) at (0x7fffffffed10) -- Size = (4) -- vaddr (0x7fffffffed10) -- paddr (0xc4d10) 

-- Tick (36900500) -- ISN: (102141) : L from (0x7fffffffed10) -- of Size = (4) -- vaddr (0x7fffffffed10) -- paddr (0xc4d10) 

-- Tick (36900500) -- ISN: (102145) : L from (0x7fffffffed10) -- of Size = (4) -- vaddr (0x7fffffffed10) -- paddr (0xc4d10) 

-- Tick (36901000) -- ISN: (102158) : L from (0x7fffffffed18) -- of Size = (8) -- vaddr (0x7fffffffed18) -- paddr (0xc4d18) 

-- Tick (36901000) -- ISN: (102159) : L from (0x6c48a8) -- of Size = (8) -- vaddr (0x6c48a8) -- paddr (0xc68a8) 

-- Sqsh -> ISN (102140)

-- Tick (36905500) -- ISN: (102202) : L from (0x7fffffffed10) -- of Size = (4) -- vaddr (0x7fffffffed10) -- paddr (0xc4d10) 

-- Tick (36906500) -- ISN: (102215) : L from (0x7fffffffed18) -- of Size = (8) -- vaddr (0x7fffffffed18) -- paddr (0xc4d18) 

-- Tick (36906500) -- ISN: (102216) : L from (0x6c48a8) -- of Size = (8) -- vaddr (0x6c48a8) -- paddr (0xc68a8) 

-- Tick (36907000) -- ISN: (102211) : S -> 0x(61) at (0x7fffffffed08) -- Size = (8) -- vaddr (0x7fffffffed08) -- paddr (0xc4d08) 

-- Tick (36907500) -- ISN: (102223) : S -> 0x(7a) at (0x7fffffffed00) -- Size = (8) -- vaddr (0x7fffffffed00) -- paddr (0xc4d00) 

-- Sqsh -> ISN (102207)

-- Tick (36913000) -- ISN: (102272) : L from (0x7fffffffed10) -- of Size = (4) -- vaddr (0x7fffffffed10) -- paddr (0xc4d10) 

-- Tick (36913000) -- ISN: (102276) : L from (0x7fffffffed10) -- of Size = (4) -- vaddr (0x7fffffffed10) -- paddr (0xc4d10) 

-- Tick (36914500) -- ISN: (102275) : S -> 0x(1) at (0x7fffffffed10) -- Size = (4) -- vaddr (0x7fffffffed10) -- paddr (0xc4d10) 

-- Tick (36914500) -- ISN: (102285) : S -> 0x(61) at (0x7fffffffed08) -- Size = (8) -- vaddr (0x7fffffffed08) -- paddr (0xc4d08) 

-- Tick (36914500) -- ISN: (102289) : L from (0x7fffffffed18) -- of Size = (8) -- vaddr (0x7fffffffed18) -- paddr (0xc4d18) 

-- Tick (36914500) -- ISN: (102290) : L from (0x6c48a8) -- of Size = (8) -- vaddr (0x6c48a8) -- paddr (0xc68a8) 

-- Sqsh -> ISN (102275)

-- Tick (36920000) -- ISN: (102346) : L from (0x7fffffffed10) -- of Size = (4) -- vaddr (0x7fffffffed10) -- paddr (0xc4d10) 

-- Tick (36923000) -- ISN: (101957) : S -> 0x(0) at (0x6bc424) -- Size = (4) -- vaddr (0x6bc424) -- paddr (0xbc424) 

-- Tick (36927000) -- ISN: (102359) : L from (0x7fffffffed18) -- of Size = (8) -- vaddr (0x7fffffffed18) -- paddr (0xc4d18) 

-- Tick (36927000) -- ISN: (102360) : L from (0x6c48a8) -- of Size = (8) -- vaddr (0x6c48a8) -- paddr (0xc68a8) 

-- Sqsh -> ISN (102351)

-- Tick (36932000) -- ISN: (102410) : L from (0x7fffffffed10) -- of Size = (4) -- vaddr (0x7fffffffed10) -- paddr (0xc4d10) 

-- Tick (36933500) -- ISN: (102413) : S -> 0x(2) at (0x7fffffffed10) -- Size = (4) -- vaddr (0x7fffffffed10) -- paddr (0xc4d10) 

-- Tick (36933500) -- ISN: (102423) : S -> 0x(61) at (0x7fffffffed08) -- Size = (8) -- vaddr (0x7fffffffed08) -- paddr (0xc4d08) 

-- Tick (36933500) -- ISN: (102427) : L from (0x7fffffffed18) -- of Size = (8) -- vaddr (0x7fffffffed18) -- paddr (0xc4d18) 

-- Tick (36933500) -- ISN: (102428) : L from (0x6c48a8) -- of Size = (8) -- vaddr (0x6c48a8) -- paddr (0xc68a8) 

-- Tick (36934000) -- ISN: (102414) : L from (0x7fffffffed10) -- of Size = (4) -- vaddr (0x7fffffffed10) -- paddr (0xc4d10) 

-- Sqsh -> ISN (102425)

-- Sqsh -> ISN (102419)

-- Tick (36941500) -- ISN: (102478) : L from (0x7fffffffed10) -- of Size = (4) -- vaddr (0x7fffffffed10) -- paddr (0xc4d10) 

-- Tick (36943000) -- ISN: (102491) : S -> 0x(61) at (0x7fffffffed08) -- Size = (8) -- vaddr (0x7fffffffed08) -- paddr (0xc4d08) 

-- Tick (36943000) -- ISN: (102495) : L from (0x7fffffffed18) -- of Size = (8) -- vaddr (0x7fffffffed18) -- paddr (0xc4d18) 

-- Tick (36943000) -- ISN: (102496) : L from (0x6c48a8) -- of Size = (8) -- vaddr (0x6c48a8) -- paddr (0xc68a8) 

-- Tick (36943500) -- ISN: (102481) : S -> 0x(3) at (0x7fffffffed10) -- Size = (4) -- vaddr (0x7fffffffed10) -- paddr (0xc4d10) 

-- Sqsh -> ISN (102493)

-- Tick (36944000) -- ISN: (102482) : L from (0x7fffffffed10) -- of Size = (4) -- vaddr (0x7fffffffed10) -- paddr (0xc4d10) 

-- Sqsh -> ISN (102487)

-- Tick (36951500) -- ISN: (102552) : L from (0x7fffffffed10) -- of Size = (4) -- vaddr (0x7fffffffed10) -- paddr (0xc4d10) 

-- Tick (36953000) -- ISN: (102565) : S -> 0x(61) at (0x7fffffffed08) -- Size = (8) -- vaddr (0x7fffffffed08) -- paddr (0xc4d08) 

-- Tick (36953000) -- ISN: (102569) : L from (0x7fffffffed08) -- of Size = (8) -- vaddr (0x7fffffffed08) -- paddr (0xc4d08) 

-- Tick (36953500) -- ISN: (102555) : S -> 0x(4) at (0x7fffffffed10) -- Size = (4) -- vaddr (0x7fffffffed10) -- paddr (0xc4d10) 

-- Tick (36954000) -- ISN: (102556) : L from (0x7fffffffed10) -- of Size = (4) -- vaddr (0x7fffffffed10) -- paddr (0xc4d10) 

-- Tick (36954000) -- ISN: (102573) : L from (0x7fffffffed18) -- of Size = (8) -- vaddr (0x7fffffffed18) -- paddr (0xc4d18) 

-- Tick (36954000) -- ISN: (102574) : L from (0x6c48a8) -- of Size = (8) -- vaddr (0x6c48a8) -- paddr (0xc68a8) 

-- Tick (36955000) -- ISN: (102581) : S -> 0x(7a) at (0x7fffffffed08) -- Size = (8) -- vaddr (0x7fffffffed08) -- paddr (0xc4d08) 

-- Tick (36955000) -- ISN: (102585) : L from (0x7fffffffed20) -- of Size = (8) -- vaddr (0x7fffffffed20) -- paddr (0xc4d20) 

-- Sqsh -> ISN (102583)

-- Sqsh -> ISN (102561)

-- Tick (36962000) -- ISN: (102620) : L from (0x7fffffffed10) -- of Size = (4) -- vaddr (0x7fffffffed10) -- paddr (0xc4d10) 

-- Tick (36963000) -- ISN: (102630) : L from (0x7fffffffed10) -- of Size = (4) -- vaddr (0x7fffffffed10) -- paddr (0xc4d10) 

-- Tick (36963500) -- ISN: (102640) : L from (0x7fffffffed10) -- of Size = (4) -- vaddr (0x7fffffffed10) -- paddr (0xc4d10) 

-- Tick (36964000) -- ISN: (102623) : S -> 0x(5) at (0x7fffffffed10) -- Size = (4) -- vaddr (0x7fffffffed10) -- paddr (0xc4d10) 

-- Tick (36964000) -- ISN: (102650) : L from (0x7fffffffed10) -- of Size = (4) -- vaddr (0x7fffffffed10) -- paddr (0xc4d10) 

-- Tick (36964500) -- ISN: (102624) : L from (0x7fffffffed10) -- of Size = (4) -- vaddr (0x7fffffffed10) -- paddr (0xc4d10) 

-- Sqsh -> ISN (102629)

-- Tick (36969500) -- ISN: (102690) : L from (0x7fffffffed10) -- of Size = (4) -- vaddr (0x7fffffffed10) -- paddr (0xc4d10) 

-- Tick (36971500) -- ISN: (102693) : S -> 0x(6) at (0x7fffffffed10) -- Size = (4) -- vaddr (0x7fffffffed10) -- paddr (0xc4d10) 

-- Tick (36972000) -- ISN: (102694) : L from (0x7fffffffed10) -- of Size = (4) -- vaddr (0x7fffffffed10) -- paddr (0xc4d10) 

-- Tick (36972000) -- ISN: (102700) : L from (0x7fffffffed10) -- of Size = (4) -- vaddr (0x7fffffffed10) -- paddr (0xc4d10) 

-- Tick (36973500) -- ISN: (102703) : S -> 0x(7) at (0x7fffffffed10) -- Size = (4) -- vaddr (0x7fffffffed10) -- paddr (0xc4d10) 

-- Tick (36974000) -- ISN: (102704) : L from (0x7fffffffed10) -- of Size = (4) -- vaddr (0x7fffffffed10) -- paddr (0xc4d10) 

-- Tick (36974000) -- ISN: (102710) : L from (0x7fffffffed10) -- of Size = (4) -- vaddr (0x7fffffffed10) -- paddr (0xc4d10) 

-- Tick (36975500) -- ISN: (102713) : S -> 0x(8) at (0x7fffffffed10) -- Size = (4) -- vaddr (0x7fffffffed10) -- paddr (0xc4d10) 

-- Tick (36976000) -- ISN: (102714) : L from (0x7fffffffed10) -- of Size = (4) -- vaddr (0x7fffffffed10) -- paddr (0xc4d10) 

-- Tick (36976000) -- ISN: (102720) : L from (0x7fffffffed10) -- of Size = (4) -- vaddr (0x7fffffffed10) -- paddr (0xc4d10) 

-- Tick (36977500) -- ISN: (102723) : S -> 0x(9) at (0x7fffffffed10) -- Size = (4) -- vaddr (0x7fffffffed10) -- paddr (0xc4d10) 

-- Tick (36978000) -- ISN: (102724) : L from (0x7fffffffed10) -- of Size = (4) -- vaddr (0x7fffffffed10) -- paddr (0xc4d10) 

-- Tick (36978000) -- ISN: (102730) : L from (0x7fffffffed10) -- of Size = (4) -- vaddr (0x7fffffffed10) -- paddr (0xc4d10) 

-- Tick (36979500) -- ISN: (102733) : S -> 0x(a) at (0x7fffffffed10) -- Size = (4) -- vaddr (0x7fffffffed10) -- paddr (0xc4d10) 

-- Tick (36980000) -- ISN: (102734) : L from (0x7fffffffed10) -- of Size = (4) -- vaddr (0x7fffffffed10) -- paddr (0xc4d10) 

-- Tick (36980000) -- ISN: (102740) : L from (0x7fffffffed10) -- of Size = (4) -- vaddr (0x7fffffffed10) -- paddr (0xc4d10) 

-- Tick (36981500) -- ISN: (102743) : S -> 0x(b) at (0x7fffffffed10) -- Size = (4) -- vaddr (0x7fffffffed10) -- paddr (0xc4d10) 

-- Tick (36982000) -- ISN: (102744) : L from (0x7fffffffed10) -- of Size = (4) -- vaddr (0x7fffffffed10) -- paddr (0xc4d10) 

-- Tick (36982000) -- ISN: (102750) : L from (0x7fffffffed10) -- of Size = (4) -- vaddr (0x7fffffffed10) -- paddr (0xc4d10) 

-- Sqsh -> ISN (102739)

-- Tick (36991000) -- ISN: (102867) : L from (0x7fffffffed18) -- of Size = (8) -- vaddr (0x7fffffffed18) -- paddr (0xc4d18) 

-- Tick (36991500) -- ISN: (102863) : S -> 0x(61) at (0x7fffffffed08) -- Size = (8) -- vaddr (0x7fffffffed08) -- paddr (0xc4d08) 

-- Tick (36992000) -- ISN: (102868) : L from (0x6c48a8) -- of Size = (8) -- vaddr (0x6c48a8) -- paddr (0xc68a8) 

-- Sqsh -> ISN (102865)

-- Tick (36998000) -- ISN: (102919) : L from (0x7fffffffed08) -- of Size = (8) -- vaddr (0x7fffffffed08) -- paddr (0xc4d08) 

-- Tick (36998500) -- ISN: (102923) : L from (0x7fffffffed18) -- of Size = (8) -- vaddr (0x7fffffffed18) -- paddr (0xc4d18) 

-- Tick (36998500) -- ISN: (102924) : L from (0x6c48a8) -- of Size = (8) -- vaddr (0x6c48a8) -- paddr (0xc68a8) 

HERE 2 : enable_memreq_tracing = 0
Exiting @ tick 39744000 because exiting with last active thread context
