gem5 Simulator System.  http://gem5.org
gem5 is copyrighted software; use the --copyright option for details.

gem5 compiled Feb 25 2020 19:15:33
gem5 started Feb 25 2020 23:28:27
gem5 executing on tarun-s, pid 1440
command line: build/X86/gem5.opt configs/example/se.py --cmd=/home/tarun/Desktop/gem5/tests/my_progs/spectre_linked --cpu-type=DerivO3CPU --caches

Global frequency set at 1000000000000 ticks per second
**** REAL SIMULATION ****
array 1=0x7fffffffec80
size of a1 = 100 
HERE 1 : enable_memreq_tracing = 1

===================== pushRequest in lsq_impl.hh ==================
===================== Load from Address = 0x7fffffffec70 ==================
===================== Size = 4 ==================

===================== pushRequest in lsq_impl.hh ==================
===================== Load from Address = 0x7fffffffec78 ==================
===================== Size = 4 ==================

===================== pushRequest in lsq_impl.hh ==================
===================== Load from Address = 0x7fffffffec70 ==================
===================== Size = 4 ==================

===================== pushRequest in lsq_impl.hh ==================
===================== Load from Address = 0x7fffffffec70 ==================
===================== Size = 4 ==================

===================== pushRequest in lsq_impl.hh ==================
===================== Store at Address = 0x7fffffffec68 ==================
===================== Store Data = 3 ==================
===================== Size = 8 ==================

===================== pushRequest in lsq_impl.hh ==================
===================== Load from Address = 0x7fffffffec70 ==================
===================== Size = 4 ==================

===================== pushRequest in lsq_impl.hh ==================
===================== Load from Address = 0x7fffffffec80 ==================
===================== Size = 1 ==================
==== squash instn in lsq_unit_impl.hh = 45889 ---------

===================== pushRequest in lsq_impl.hh ==================
===================== Store at Address = 0x7fffffffec7c ==================
===================== Store Data = 0 ==================
===================== Size = 4 ==================

===================== pushRequest in lsq_impl.hh ==================
===================== Load from Address = 0x7fffffffec68 ==================
===================== Size = 8 ==================

===================== pushRequest in lsq_impl.hh ==================
===================== Load from Address = 0x7fffffffec70 ==================
===================== Size = 4 ==================

===================== pushRequest in lsq_impl.hh ==================
===================== Load from Address = 0x7fffffffec70 ==================
===================== Size = 4 ==================

===================== pushRequest in lsq_impl.hh ==================
===================== Load from Address = 0x7fffffffece8 ==================
===================== Size = 8 ==================

===================== pushRequest in lsq_impl.hh ==================
===================== Load from Address = 0x6bd8a8 ==================
===================== Size = 8 ==================

===================== pushRequest in lsq_impl.hh ==================
===================== Store at Address = 0x7fffffffec68 ==================
===================== Store Data = 1f ==================
===================== Size = 8 ==================
==== squash instn in lsq_unit_impl.hh = 45961 ---------
HERE 2 : enable_memreq_tracing = 0
HERE 1 : enable_memreq_tracing = 1

===================== pushRequest in lsq_impl.hh ==================
===================== Load from Address = 0x7fffffffec70 ==================
===================== Size = 4 ==================

===================== pushRequest in lsq_impl.hh ==================
===================== Load from Address = 0x7fffffffec78 ==================
===================== Size = 4 ==================

===================== pushRequest in lsq_impl.hh ==================
===================== Load from Address = 0x7fffffffec70 ==================
===================== Size = 4 ==================

===================== pushRequest in lsq_impl.hh ==================
===================== Store at Address = 0x7fffffffec68 ==================
===================== Store Data = 3 ==================
===================== Size = 8 ==================

===================== pushRequest in lsq_impl.hh ==================
===================== Load from Address = 0x7fffffffec70 ==================
===================== Size = 4 ==================
==== squash instn in lsq_unit_impl.hh = 46124 ---------

===================== pushRequest in lsq_impl.hh ==================
===================== Load from Address = 0x7fffffffec81 ==================
===================== Size = 1 ==================

===================== pushRequest in lsq_impl.hh ==================
===================== Store at Address = 0x7fffffffec7c ==================
===================== Store Data = 1 ==================
===================== Size = 4 ==================

===================== pushRequest in lsq_impl.hh ==================
===================== Load from Address = 0x7fffffffec68 ==================
===================== Size = 8 ==================

===================== pushRequest in lsq_impl.hh ==================
===================== Load from Address = 0x7fffffffec70 ==================
===================== Size = 4 ==================

===================== pushRequest in lsq_impl.hh ==================
===================== Store at Address = 0x7fffffffec68 ==================
===================== Store Data = e1 ==================
===================== Size = 8 ==================

===================== pushRequest in lsq_impl.hh ==================
===================== Store at Address = 0x7fffffffec70 ==================
===================== Store Data = 2 ==================
===================== Size = 4 ==================

===================== pushRequest in lsq_impl.hh ==================
===================== Load from Address = 0x7fffffffec68 ==================
===================== Size = 8 ==================

===================== pushRequest in lsq_impl.hh ==================
===================== Load from Address = 0x7fffffffec70 ==================
===================== Size = 4 ==================

===================== pushRequest in lsq_impl.hh ==================
===================== Load from Address = 0x7fffffffec70 ==================
===================== Size = 4 ==================

===================== pushRequest in lsq_impl.hh ==================
===================== Load from Address = 0x7fffffffec78 ==================
===================== Size = 4 ==================

===================== pushRequest in lsq_impl.hh ==================
===================== Load from Address = 0x7fffffffec70 ==================
===================== Size = 4 ==================
HERE 2 : enable_memreq_tracing = 0
HERE 1 : enable_memreq_tracing = 1

===================== pushRequest in lsq_impl.hh ==================
===================== Load from Address = 0x7fffffffec70 ==================
===================== Size = 4 ==================

===================== pushRequest in lsq_impl.hh ==================
===================== Store at Address = 0x7fffffffec70 ==================
===================== Store Data = 3 ==================
===================== Size = 4 ==================

===================== pushRequest in lsq_impl.hh ==================
===================== Load from Address = 0x7fffffffec70 ==================
===================== Size = 4 ==================

===================== pushRequest in lsq_impl.hh ==================
===================== Store at Address = 0x7fffffffec68 ==================
===================== Store Data = e1 ==================
===================== Size = 8 ==================

===================== pushRequest in lsq_impl.hh ==================
===================== Load from Address = 0x7fffffffec68 ==================
===================== Size = 8 ==================

===================== pushRequest in lsq_impl.hh ==================
===================== Load from Address = 0x7fffffffec70 ==================
===================== Size = 4 ==================

===================== pushRequest in lsq_impl.hh ==================
===================== Load from Address = 0x7fffffffec78 ==================
===================== Size = 4 ==================

===================== pushRequest in lsq_impl.hh ==================
===================== Load from Address = 0x7fffffffec70 ==================
===================== Size = 4 ==================
HERE 2 : enable_memreq_tracing = 0
HERE 1 : enable_memreq_tracing = 1

===================== pushRequest in lsq_impl.hh ==================
===================== Store at Address = 0x7fffffffec70 ==================
===================== Store Data = 4 ==================
===================== Size = 4 ==================

===================== pushRequest in lsq_impl.hh ==================
===================== Load from Address = 0x7fffffffec70 ==================
===================== Size = 4 ==================

===================== pushRequest in lsq_impl.hh ==================
===================== Load from Address = 0x7fffffffec78 ==================
===================== Size = 4 ==================

===================== pushRequest in lsq_impl.hh ==================
===================== Load from Address = 0x7fffffffec70 ==================
===================== Size = 4 ==================

===================== pushRequest in lsq_impl.hh ==================
===================== Load from Address = 0x7fffffffec70 ==================
===================== Size = 4 ==================

===================== pushRequest in lsq_impl.hh ==================
===================== Load from Address = 0x7fffffffec84 ==================
===================== Size = 1 ==================

===================== pushRequest in lsq_impl.hh ==================
===================== Store at Address = 0x7fffffffec68 ==================
===================== Store Data = 3 ==================
===================== Size = 8 ==================

===================== pushRequest in lsq_impl.hh ==================
===================== Load from Address = 0x7fffffffec68 ==================
===================== Size = 8 ==================

===================== pushRequest in lsq_impl.hh ==================
===================== Store at Address = 0x7fffffffec7c ==================
===================== Store Data = 4 ==================
===================== Size = 4 ==================

===================== pushRequest in lsq_impl.hh ==================
===================== Load from Address = 0x7fffffffec70 ==================
===================== Size = 4 ==================

===================== pushRequest in lsq_impl.hh ==================
===================== Store at Address = 0x7fffffffec68 ==================
===================== Store Data = e1 ==================
===================== Size = 8 ==================
HERE 2 : enable_memreq_tracing = 0
HERE 1 : enable_memreq_tracing = 1

===================== pushRequest in lsq_impl.hh ==================
===================== Store at Address = 0x7fffffffec7c ==================
===================== Store Data = 5 ==================
===================== Size = 4 ==================

===================== pushRequest in lsq_impl.hh ==================
===================== Load from Address = 0x7fffffffec70 ==================
===================== Size = 4 ==================

===================== pushRequest in lsq_impl.hh ==================
===================== Store at Address = 0x7fffffffec68 ==================
===================== Store Data = e1 ==================
===================== Size = 8 ==================

===================== pushRequest in lsq_impl.hh ==================
===================== Load from Address = 0x7fffffffec68 ==================
===================== Size = 8 ==================

===================== pushRequest in lsq_impl.hh ==================
===================== Store at Address = 0x7fffffffec70 ==================
===================== Store Data = 6 ==================
===================== Size = 4 ==================

===================== pushRequest in lsq_impl.hh ==================
===================== Load from Address = 0x7fffffffec70 ==================
===================== Size = 4 ==================

===================== pushRequest in lsq_impl.hh ==================
===================== Load from Address = 0x7fffffffec70 ==================
===================== Size = 4 ==================

===================== pushRequest in lsq_impl.hh ==================
===================== Load from Address = 0x7fffffffec78 ==================
===================== Size = 4 ==================

===================== pushRequest in lsq_impl.hh ==================
===================== Load from Address = 0x7fffffffec70 ==================
===================== Size = 4 ==================

===================== pushRequest in lsq_impl.hh ==================
===================== Load from Address = 0x7fffffffec86 ==================
===================== Size = 1 ==================

===================== pushRequest in lsq_impl.hh ==================
===================== Store at Address = 0x7fffffffec68 ==================
===================== Store Data = 3 ==================
===================== Size = 8 ==================

===================== pushRequest in lsq_impl.hh ==================
===================== Load from Address = 0x7fffffffec68 ==================
===================== Size = 8 ==================
HERE 2 : enable_memreq_tracing = 0
HERE 1 : enable_memreq_tracing = 1

===================== pushRequest in lsq_impl.hh ==================
===================== Store at Address = 0x7fffffffec7c ==================
===================== Store Data = 7 ==================
===================== Size = 4 ==================

===================== pushRequest in lsq_impl.hh ==================
===================== Load from Address = 0x7fffffffec70 ==================
===================== Size = 4 ==================

===================== pushRequest in lsq_impl.hh ==================
===================== Store at Address = 0x7fffffffec68 ==================
===================== Store Data = e1 ==================
===================== Size = 8 ==================

===================== pushRequest in lsq_impl.hh ==================
===================== Load from Address = 0x7fffffffec68 ==================
===================== Size = 8 ==================

===================== pushRequest in lsq_impl.hh ==================
===================== Store at Address = 0x7fffffffec70 ==================
===================== Store Data = 8 ==================
===================== Size = 4 ==================

===================== pushRequest in lsq_impl.hh ==================
===================== Load from Address = 0x7fffffffec70 ==================
===================== Size = 4 ==================

===================== pushRequest in lsq_impl.hh ==================
===================== Load from Address = 0x7fffffffec70 ==================
===================== Size = 4 ==================

===================== pushRequest in lsq_impl.hh ==================
===================== Load from Address = 0x7fffffffec78 ==================
===================== Size = 4 ==================

===================== pushRequest in lsq_impl.hh ==================
===================== Load from Address = 0x7fffffffec70 ==================
===================== Size = 4 ==================

===================== pushRequest in lsq_impl.hh ==================
===================== Load from Address = 0x7fffffffec88 ==================
===================== Size = 1 ==================

===================== pushRequest in lsq_impl.hh ==================
===================== Store at Address = 0x7fffffffec68 ==================
===================== Store Data = 3 ==================
===================== Size = 8 ==================

===================== pushRequest in lsq_impl.hh ==================
===================== Load from Address = 0x7fffffffec68 ==================
===================== Size = 8 ==================
HERE 2 : enable_memreq_tracing = 0
HERE 1 : enable_memreq_tracing = 1

===================== pushRequest in lsq_impl.hh ==================
===================== Load from Address = 0x7fffffffec89 ==================
===================== Size = 1 ==================

===================== pushRequest in lsq_impl.hh ==================
===================== Store at Address = 0x7fffffffec68 ==================
===================== Store Data = 3 ==================
===================== Size = 8 ==================

===================== pushRequest in lsq_impl.hh ==================
===================== Load from Address = 0x7fffffffec68 ==================
===================== Size = 8 ==================

===================== pushRequest in lsq_impl.hh ==================
===================== Store at Address = 0x7fffffffec7c ==================
===================== Store Data = 9 ==================
===================== Size = 4 ==================

===================== pushRequest in lsq_impl.hh ==================
===================== Load from Address = 0x7fffffffec70 ==================
===================== Size = 4 ==================

===================== pushRequest in lsq_impl.hh ==================
===================== Store at Address = 0x7fffffffec68 ==================
===================== Store Data = e1 ==================
===================== Size = 8 ==================

===================== pushRequest in lsq_impl.hh ==================
===================== Load from Address = 0x7fffffffec68 ==================
===================== Size = 8 ==================

===================== pushRequest in lsq_impl.hh ==================
===================== Store at Address = 0x7fffffffec70 ==================
===================== Store Data = a ==================
===================== Size = 4 ==================

===================== pushRequest in lsq_impl.hh ==================
===================== Load from Address = 0x7fffffffec70 ==================
===================== Size = 4 ==================

===================== pushRequest in lsq_impl.hh ==================
===================== Load from Address = 0x7fffffffec70 ==================
===================== Size = 4 ==================

===================== pushRequest in lsq_impl.hh ==================
===================== Load from Address = 0x7fffffffec78 ==================
===================== Size = 4 ==================

===================== pushRequest in lsq_impl.hh ==================
===================== Load from Address = 0x7fffffffec70 ==================
===================== Size = 4 ==================
HERE 2 : enable_memreq_tracing = 0
HERE 1 : enable_memreq_tracing = 1

===================== pushRequest in lsq_impl.hh ==================
===================== Store at Address = 0x7fffffffec70 ==================
===================== Store Data = b ==================
===================== Size = 4 ==================

===================== pushRequest in lsq_impl.hh ==================
===================== Store at Address = 0x7fffffffec68 ==================
===================== Store Data = e1 ==================
===================== Size = 8 ==================

===================== pushRequest in lsq_impl.hh ==================
===================== Load from Address = 0x7fffffffec70 ==================
===================== Size = 4 ==================

===================== pushRequest in lsq_impl.hh ==================
===================== Load from Address = 0x7fffffffec68 ==================
===================== Size = 8 ==================

===================== pushRequest in lsq_impl.hh ==================
===================== Load from Address = 0x7fffffffec70 ==================
===================== Size = 4 ==================

===================== pushRequest in lsq_impl.hh ==================
===================== Load from Address = 0x7fffffffec78 ==================
===================== Size = 4 ==================

===================== pushRequest in lsq_impl.hh ==================
===================== Load from Address = 0x7fffffffec70 ==================
===================== Size = 4 ==================

===================== pushRequest in lsq_impl.hh ==================
===================== Load from Address = 0x7fffffffec8b ==================
===================== Size = 1 ==================

===================== pushRequest in lsq_impl.hh ==================
===================== Store at Address = 0x7fffffffec68 ==================
===================== Store Data = 3 ==================
===================== Size = 8 ==================
HERE 2 : enable_memreq_tracing = 0
HERE 1 : enable_memreq_tracing = 1

===================== pushRequest in lsq_impl.hh ==================
===================== Store at Address = 0x7fffffffec68 ==================
===================== Store Data = e1 ==================
===================== Size = 8 ==================

===================== pushRequest in lsq_impl.hh ==================
===================== Load from Address = 0x7fffffffec68 ==================
===================== Size = 8 ==================

===================== pushRequest in lsq_impl.hh ==================
===================== Load from Address = 0x7fffffffec70 ==================
===================== Size = 4 ==================

===================== pushRequest in lsq_impl.hh ==================
===================== Load from Address = 0x7fffffffec78 ==================
===================== Size = 4 ==================

===================== pushRequest in lsq_impl.hh ==================
===================== Load from Address = 0x7fffffffec70 ==================
===================== Size = 4 ==================

===================== pushRequest in lsq_impl.hh ==================
===================== Load from Address = 0x7fffffffec8c ==================
===================== Size = 1 ==================

===================== pushRequest in lsq_impl.hh ==================
===================== Store at Address = 0x7fffffffec68 ==================
===================== Store Data = 3 ==================
===================== Size = 8 ==================

===================== pushRequest in lsq_impl.hh ==================
===================== Load from Address = 0x7fffffffec68 ==================
===================== Size = 8 ==================
HERE 2 : enable_memreq_tracing = 0
HERE 1 : enable_memreq_tracing = 1

===================== pushRequest in lsq_impl.hh ==================
===================== Load from Address = 0x7fffffffec70 ==================
===================== Size = 4 ==================

===================== pushRequest in lsq_impl.hh ==================
===================== Store at Address = 0x7fffffffec68 ==================
===================== Store Data = e1 ==================
===================== Size = 8 ==================

===================== pushRequest in lsq_impl.hh ==================
===================== Load from Address = 0x7fffffffec68 ==================
===================== Size = 8 ==================

===================== pushRequest in lsq_impl.hh ==================
===================== Load from Address = 0x7fffffffec70 ==================
===================== Size = 4 ==================

===================== pushRequest in lsq_impl.hh ==================
===================== Load from Address = 0x7fffffffec78 ==================
===================== Size = 4 ==================

===================== pushRequest in lsq_impl.hh ==================
===================== Load from Address = 0x7fffffffec70 ==================
===================== Size = 4 ==================

===================== pushRequest in lsq_impl.hh ==================
===================== Load from Address = 0x7fffffffec8d ==================
===================== Size = 1 ==================

===================== pushRequest in lsq_impl.hh ==================
===================== Store at Address = 0x7fffffffec68 ==================
===================== Store Data = 3 ==================
===================== Size = 8 ==================

===================== pushRequest in lsq_impl.hh ==================
===================== Load from Address = 0x7fffffffec68 ==================
===================== Size = 8 ==================
HERE 2 : enable_memreq_tracing = 0
HERE 1 : enable_memreq_tracing = 1

===================== pushRequest in lsq_impl.hh ==================
===================== Load from Address = 0x7fffffffec70 ==================
===================== Size = 4 ==================

===================== pushRequest in lsq_impl.hh ==================
===================== Store at Address = 0x7fffffffec68 ==================
===================== Store Data = e1 ==================
===================== Size = 8 ==================

===================== pushRequest in lsq_impl.hh ==================
===================== Load from Address = 0x7fffffffec68 ==================
===================== Size = 8 ==================

===================== pushRequest in lsq_impl.hh ==================
===================== Load from Address = 0x7fffffffec70 ==================
===================== Size = 4 ==================

===================== pushRequest in lsq_impl.hh ==================
===================== Load from Address = 0x7fffffffec78 ==================
===================== Size = 4 ==================

===================== pushRequest in lsq_impl.hh ==================
===================== Load from Address = 0x7fffffffec70 ==================
===================== Size = 4 ==================

===================== pushRequest in lsq_impl.hh ==================
===================== Store at Address = 0x7fffffffec68 ==================
===================== Store Data = 3 ==================
===================== Size = 8 ==================

===================== pushRequest in lsq_impl.hh ==================
===================== Load from Address = 0x7fffffffec8e ==================
===================== Size = 1 ==================
HERE 2 : enable_memreq_tracing = 0
HERE 1 : enable_memreq_tracing = 1

===================== pushRequest in lsq_impl.hh ==================
===================== Load from Address = 0x7fffffffec70 ==================
===================== Size = 4 ==================

===================== pushRequest in lsq_impl.hh ==================
===================== Store at Address = 0x7fffffffec68 ==================
===================== Store Data = e1 ==================
===================== Size = 8 ==================

===================== pushRequest in lsq_impl.hh ==================
===================== Load from Address = 0x7fffffffec68 ==================
===================== Size = 8 ==================

===================== pushRequest in lsq_impl.hh ==================
===================== Load from Address = 0x7fffffffec70 ==================
===================== Size = 4 ==================

===================== pushRequest in lsq_impl.hh ==================
===================== Load from Address = 0x7fffffffec78 ==================
===================== Size = 4 ==================

===================== pushRequest in lsq_impl.hh ==================
===================== Load from Address = 0x7fffffffec70 ==================
===================== Size = 4 ==================

===================== pushRequest in lsq_impl.hh ==================
===================== Store at Address = 0x7fffffffec68 ==================
===================== Store Data = 3 ==================
===================== Size = 8 ==================

===================== pushRequest in lsq_impl.hh ==================
===================== Load from Address = 0x7fffffffec8f ==================
===================== Size = 1 ==================
HERE 2 : enable_memreq_tracing = 0
HERE 1 : enable_memreq_tracing = 1

===================== pushRequest in lsq_impl.hh ==================
===================== Load from Address = 0x7fffffffec70 ==================
===================== Size = 4 ==================

===================== pushRequest in lsq_impl.hh ==================
===================== Store at Address = 0x7fffffffec68 ==================
===================== Store Data = e1 ==================
===================== Size = 8 ==================

===================== pushRequest in lsq_impl.hh ==================
===================== Load from Address = 0x7fffffffec68 ==================
===================== Size = 8 ==================

===================== pushRequest in lsq_impl.hh ==================
===================== Load from Address = 0x7fffffffec70 ==================
===================== Size = 4 ==================

===================== pushRequest in lsq_impl.hh ==================
===================== Load from Address = 0x7fffffffec78 ==================
===================== Size = 4 ==================

===================== pushRequest in lsq_impl.hh ==================
===================== Load from Address = 0x7fffffffec70 ==================
===================== Size = 4 ==================

===================== pushRequest in lsq_impl.hh ==================
===================== Store at Address = 0x7fffffffec68 ==================
===================== Store Data = 3 ==================
===================== Size = 8 ==================

===================== pushRequest in lsq_impl.hh ==================
===================== Load from Address = 0x7fffffffec68 ==================
===================== Size = 8 ==================

===================== pushRequest in lsq_impl.hh ==================
===================== Load from Address = 0x7fffffffec90 ==================
===================== Size = 1 ==================
HERE 2 : enable_memreq_tracing = 0
HERE 1 : enable_memreq_tracing = 1

===================== pushRequest in lsq_impl.hh ==================
===================== Load from Address = 0x7fffffffec70 ==================
===================== Size = 4 ==================

===================== pushRequest in lsq_impl.hh ==================
===================== Store at Address = 0x7fffffffec68 ==================
===================== Store Data = e1 ==================
===================== Size = 8 ==================

===================== pushRequest in lsq_impl.hh ==================
===================== Load from Address = 0x7fffffffec68 ==================
===================== Size = 8 ==================

===================== pushRequest in lsq_impl.hh ==================
===================== Load from Address = 0x7fffffffec70 ==================
===================== Size = 4 ==================

===================== pushRequest in lsq_impl.hh ==================
===================== Load from Address = 0x7fffffffec78 ==================
===================== Size = 4 ==================

===================== pushRequest in lsq_impl.hh ==================
===================== Load from Address = 0x7fffffffec70 ==================
===================== Size = 4 ==================

===================== pushRequest in lsq_impl.hh ==================
===================== Load from Address = 0x7fffffffec91 ==================
===================== Size = 1 ==================

===================== pushRequest in lsq_impl.hh ==================
===================== Store at Address = 0x7fffffffec68 ==================
===================== Store Data = 3 ==================
===================== Size = 8 ==================

===================== pushRequest in lsq_impl.hh ==================
===================== Load from Address = 0x7fffffffec68 ==================
===================== Size = 8 ==================
HERE 2 : enable_memreq_tracing = 0
HERE 1 : enable_memreq_tracing = 1

===================== pushRequest in lsq_impl.hh ==================
===================== Load from Address = 0x7fffffffec70 ==================
===================== Size = 4 ==================

===================== pushRequest in lsq_impl.hh ==================
===================== Store at Address = 0x7fffffffec68 ==================
===================== Store Data = e1 ==================
===================== Size = 8 ==================

===================== pushRequest in lsq_impl.hh ==================
===================== Load from Address = 0x7fffffffec68 ==================
===================== Size = 8 ==================

===================== pushRequest in lsq_impl.hh ==================
===================== Load from Address = 0x7fffffffec70 ==================
===================== Size = 4 ==================

===================== pushRequest in lsq_impl.hh ==================
===================== Load from Address = 0x7fffffffec78 ==================
===================== Size = 4 ==================

===================== pushRequest in lsq_impl.hh ==================
===================== Load from Address = 0x7fffffffec70 ==================
===================== Size = 4 ==================

===================== pushRequest in lsq_impl.hh ==================
===================== Store at Address = 0x7fffffffec68 ==================
===================== Store Data = 3 ==================
===================== Size = 8 ==================

===================== pushRequest in lsq_impl.hh ==================
===================== Load from Address = 0x7fffffffec92 ==================
===================== Size = 1 ==================
HERE 2 : enable_memreq_tracing = 0
HERE 1 : enable_memreq_tracing = 1

===================== pushRequest in lsq_impl.hh ==================
===================== Load from Address = 0x7fffffffec70 ==================
===================== Size = 4 ==================

===================== pushRequest in lsq_impl.hh ==================
===================== Store at Address = 0x7fffffffec68 ==================
===================== Store Data = e1 ==================
===================== Size = 8 ==================

===================== pushRequest in lsq_impl.hh ==================
===================== Load from Address = 0x7fffffffec68 ==================
===================== Size = 8 ==================

===================== pushRequest in lsq_impl.hh ==================
===================== Load from Address = 0x7fffffffec70 ==================
===================== Size = 4 ==================

===================== pushRequest in lsq_impl.hh ==================
===================== Load from Address = 0x7fffffffec78 ==================
===================== Size = 4 ==================

===================== pushRequest in lsq_impl.hh ==================
===================== Load from Address = 0x7fffffffec70 ==================
===================== Size = 4 ==================

===================== pushRequest in lsq_impl.hh ==================
===================== Store at Address = 0x7fffffffec68 ==================
===================== Store Data = 3 ==================
===================== Size = 8 ==================

===================== pushRequest in lsq_impl.hh ==================
===================== Load from Address = 0x7fffffffec93 ==================
===================== Size = 1 ==================
HERE 2 : enable_memreq_tracing = 0
HERE 1 : enable_memreq_tracing = 1

===================== pushRequest in lsq_impl.hh ==================
===================== Load from Address = 0x7fffffffec70 ==================
===================== Size = 4 ==================

===================== pushRequest in lsq_impl.hh ==================
===================== Store at Address = 0x7fffffffec68 ==================
===================== Store Data = e1 ==================
===================== Size = 8 ==================

===================== pushRequest in lsq_impl.hh ==================
===================== Load from Address = 0x7fffffffec68 ==================
===================== Size = 8 ==================

===================== pushRequest in lsq_impl.hh ==================
===================== Load from Address = 0x7fffffffec70 ==================
===================== Size = 4 ==================

===================== pushRequest in lsq_impl.hh ==================
===================== Load from Address = 0x7fffffffec78 ==================
===================== Size = 4 ==================

===================== pushRequest in lsq_impl.hh ==================
===================== Load from Address = 0x7fffffffec70 ==================
===================== Size = 4 ==================

===================== pushRequest in lsq_impl.hh ==================
===================== Store at Address = 0x7fffffffec68 ==================
===================== Store Data = 3 ==================
===================== Size = 8 ==================

===================== pushRequest in lsq_impl.hh ==================
===================== Load from Address = 0x7fffffffec68 ==================
===================== Size = 8 ==================

===================== pushRequest in lsq_impl.hh ==================
===================== Load from Address = 0x7fffffffec94 ==================
===================== Size = 1 ==================
HERE 2 : enable_memreq_tracing = 0
HERE 1 : enable_memreq_tracing = 1

===================== pushRequest in lsq_impl.hh ==================
===================== Load from Address = 0x7fffffffec70 ==================
===================== Size = 4 ==================

===================== pushRequest in lsq_impl.hh ==================
===================== Store at Address = 0x7fffffffec68 ==================
===================== Store Data = e1 ==================
===================== Size = 8 ==================

===================== pushRequest in lsq_impl.hh ==================
===================== Load from Address = 0x7fffffffec68 ==================
===================== Size = 8 ==================

===================== pushRequest in lsq_impl.hh ==================
===================== Load from Address = 0x7fffffffec70 ==================
===================== Size = 4 ==================

===================== pushRequest in lsq_impl.hh ==================
===================== Load from Address = 0x7fffffffec78 ==================
===================== Size = 4 ==================

===================== pushRequest in lsq_impl.hh ==================
===================== Load from Address = 0x7fffffffec70 ==================
===================== Size = 4 ==================

===================== pushRequest in lsq_impl.hh ==================
===================== Load from Address = 0x7fffffffec95 ==================
===================== Size = 1 ==================

===================== pushRequest in lsq_impl.hh ==================
===================== Store at Address = 0x7fffffffec68 ==================
===================== Store Data = 3 ==================
===================== Size = 8 ==================

===================== pushRequest in lsq_impl.hh ==================
===================== Load from Address = 0x7fffffffec68 ==================
===================== Size = 8 ==================
HERE 2 : enable_memreq_tracing = 0
HERE 1 : enable_memreq_tracing = 1

===================== pushRequest in lsq_impl.hh ==================
===================== Load from Address = 0x7fffffffec70 ==================
===================== Size = 4 ==================

===================== pushRequest in lsq_impl.hh ==================
===================== Store at Address = 0x7fffffffec68 ==================
===================== Store Data = e1 ==================
===================== Size = 8 ==================

===================== pushRequest in lsq_impl.hh ==================
===================== Load from Address = 0x7fffffffec68 ==================
===================== Size = 8 ==================

===================== pushRequest in lsq_impl.hh ==================
===================== Load from Address = 0x7fffffffec70 ==================
===================== Size = 4 ==================

===================== pushRequest in lsq_impl.hh ==================
===================== Load from Address = 0x7fffffffec78 ==================
===================== Size = 4 ==================

===================== pushRequest in lsq_impl.hh ==================
===================== Load from Address = 0x7fffffffec70 ==================
===================== Size = 4 ==================

===================== pushRequest in lsq_impl.hh ==================
===================== Store at Address = 0x7fffffffec68 ==================
===================== Store Data = 3 ==================
===================== Size = 8 ==================

===================== pushRequest in lsq_impl.hh ==================
===================== Load from Address = 0x7fffffffec96 ==================
===================== Size = 1 ==================
HERE 2 : enable_memreq_tracing = 0
HERE 1 : enable_memreq_tracing = 1

===================== pushRequest in lsq_impl.hh ==================
===================== Load from Address = 0x7fffffffec70 ==================
===================== Size = 4 ==================

===================== pushRequest in lsq_impl.hh ==================
===================== Store at Address = 0x7fffffffec68 ==================
===================== Store Data = e1 ==================
===================== Size = 8 ==================

===================== pushRequest in lsq_impl.hh ==================
===================== Load from Address = 0x7fffffffec68 ==================
===================== Size = 8 ==================

===================== pushRequest in lsq_impl.hh ==================
===================== Load from Address = 0x7fffffffec70 ==================
===================== Size = 4 ==================

===================== pushRequest in lsq_impl.hh ==================
===================== Load from Address = 0x7fffffffec78 ==================
===================== Size = 4 ==================

===================== pushRequest in lsq_impl.hh ==================
===================== Load from Address = 0x7fffffffec70 ==================
===================== Size = 4 ==================

===================== pushRequest in lsq_impl.hh ==================
===================== Store at Address = 0x7fffffffec68 ==================
===================== Store Data = 3 ==================
===================== Size = 8 ==================

===================== pushRequest in lsq_impl.hh ==================
===================== Load from Address = 0x7fffffffec97 ==================
===================== Size = 1 ==================
HERE 2 : enable_memreq_tracing = 0
HERE 1 : enable_memreq_tracing = 1

===================== pushRequest in lsq_impl.hh ==================
===================== Load from Address = 0x7fffffffec70 ==================
===================== Size = 4 ==================

===================== pushRequest in lsq_impl.hh ==================
===================== Store at Address = 0x7fffffffec68 ==================
===================== Store Data = e1 ==================
===================== Size = 8 ==================

===================== pushRequest in lsq_impl.hh ==================
===================== Load from Address = 0x7fffffffec68 ==================
===================== Size = 8 ==================

===================== pushRequest in lsq_impl.hh ==================
===================== Load from Address = 0x7fffffffec70 ==================
===================== Size = 4 ==================

===================== pushRequest in lsq_impl.hh ==================
===================== Load from Address = 0x7fffffffec78 ==================
===================== Size = 4 ==================

===================== pushRequest in lsq_impl.hh ==================
===================== Load from Address = 0x7fffffffec70 ==================
===================== Size = 4 ==================

===================== pushRequest in lsq_impl.hh ==================
===================== Store at Address = 0x7fffffffec68 ==================
===================== Store Data = 3 ==================
===================== Size = 8 ==================

===================== pushRequest in lsq_impl.hh ==================
===================== Load from Address = 0x7fffffffec68 ==================
===================== Size = 8 ==================

===================== pushRequest in lsq_impl.hh ==================
===================== Load from Address = 0x7fffffffec98 ==================
===================== Size = 1 ==================
HERE 2 : enable_memreq_tracing = 0
HERE 1 : enable_memreq_tracing = 1

===================== pushRequest in lsq_impl.hh ==================
===================== Load from Address = 0x7fffffffec70 ==================
===================== Size = 4 ==================

===================== pushRequest in lsq_impl.hh ==================
===================== Store at Address = 0x7fffffffec68 ==================
===================== Store Data = e1 ==================
===================== Size = 8 ==================

===================== pushRequest in lsq_impl.hh ==================
===================== Load from Address = 0x7fffffffec68 ==================
===================== Size = 8 ==================

===================== pushRequest in lsq_impl.hh ==================
===================== Load from Address = 0x7fffffffec70 ==================
===================== Size = 4 ==================

===================== pushRequest in lsq_impl.hh ==================
===================== Load from Address = 0x7fffffffec78 ==================
===================== Size = 4 ==================

===================== pushRequest in lsq_impl.hh ==================
===================== Load from Address = 0x7fffffffec70 ==================
===================== Size = 4 ==================

===================== pushRequest in lsq_impl.hh ==================
===================== Load from Address = 0x7fffffffec99 ==================
===================== Size = 1 ==================

===================== pushRequest in lsq_impl.hh ==================
===================== Store at Address = 0x7fffffffec68 ==================
===================== Store Data = 3 ==================
===================== Size = 8 ==================

===================== pushRequest in lsq_impl.hh ==================
===================== Load from Address = 0x7fffffffec68 ==================
===================== Size = 8 ==================
HERE 2 : enable_memreq_tracing = 0
HERE 1 : enable_memreq_tracing = 1

===================== pushRequest in lsq_impl.hh ==================
===================== Load from Address = 0x7fffffffec70 ==================
===================== Size = 4 ==================

===================== pushRequest in lsq_impl.hh ==================
===================== Store at Address = 0x7fffffffec68 ==================
===================== Store Data = e1 ==================
===================== Size = 8 ==================

===================== pushRequest in lsq_impl.hh ==================
===================== Load from Address = 0x7fffffffec68 ==================
===================== Size = 8 ==================

===================== pushRequest in lsq_impl.hh ==================
===================== Load from Address = 0x7fffffffec70 ==================
===================== Size = 4 ==================

===================== pushRequest in lsq_impl.hh ==================
===================== Load from Address = 0x7fffffffec78 ==================
===================== Size = 4 ==================

===================== pushRequest in lsq_impl.hh ==================
===================== Load from Address = 0x7fffffffec70 ==================
===================== Size = 4 ==================

===================== pushRequest in lsq_impl.hh ==================
===================== Store at Address = 0x7fffffffec68 ==================
===================== Store Data = 3 ==================
===================== Size = 8 ==================

===================== pushRequest in lsq_impl.hh ==================
===================== Load from Address = 0x7fffffffec9a ==================
===================== Size = 1 ==================
HERE 2 : enable_memreq_tracing = 0
HERE 1 : enable_memreq_tracing = 1

===================== pushRequest in lsq_impl.hh ==================
===================== Load from Address = 0x7fffffffec70 ==================
===================== Size = 4 ==================

===================== pushRequest in lsq_impl.hh ==================
===================== Store at Address = 0x7fffffffec68 ==================
===================== Store Data = e1 ==================
===================== Size = 8 ==================

===================== pushRequest in lsq_impl.hh ==================
===================== Load from Address = 0x7fffffffec68 ==================
===================== Size = 8 ==================

===================== pushRequest in lsq_impl.hh ==================
===================== Load from Address = 0x7fffffffec70 ==================
===================== Size = 4 ==================

===================== pushRequest in lsq_impl.hh ==================
===================== Load from Address = 0x7fffffffec78 ==================
===================== Size = 4 ==================

===================== pushRequest in lsq_impl.hh ==================
===================== Load from Address = 0x7fffffffec70 ==================
===================== Size = 4 ==================

===================== pushRequest in lsq_impl.hh ==================
===================== Store at Address = 0x7fffffffec68 ==================
===================== Store Data = 3 ==================
===================== Size = 8 ==================

===================== pushRequest in lsq_impl.hh ==================
===================== Load from Address = 0x7fffffffec9b ==================
===================== Size = 1 ==================
HERE 2 : enable_memreq_tracing = 0
HERE 1 : enable_memreq_tracing = 1

===================== pushRequest in lsq_impl.hh ==================
===================== Load from Address = 0x7fffffffec70 ==================
===================== Size = 4 ==================

===================== pushRequest in lsq_impl.hh ==================
===================== Store at Address = 0x7fffffffec68 ==================
===================== Store Data = e1 ==================
===================== Size = 8 ==================

===================== pushRequest in lsq_impl.hh ==================
===================== Load from Address = 0x7fffffffec68 ==================
===================== Size = 8 ==================

===================== pushRequest in lsq_impl.hh ==================
===================== Load from Address = 0x7fffffffec70 ==================
===================== Size = 4 ==================

===================== pushRequest in lsq_impl.hh ==================
===================== Load from Address = 0x7fffffffec78 ==================
===================== Size = 4 ==================

===================== pushRequest in lsq_impl.hh ==================
===================== Load from Address = 0x7fffffffec70 ==================
===================== Size = 4 ==================

===================== pushRequest in lsq_impl.hh ==================
===================== Store at Address = 0x7fffffffec68 ==================
===================== Store Data = 3 ==================
===================== Size = 8 ==================

===================== pushRequest in lsq_impl.hh ==================
===================== Load from Address = 0x7fffffffec68 ==================
===================== Size = 8 ==================

===================== pushRequest in lsq_impl.hh ==================
===================== Load from Address = 0x7fffffffec9c ==================
===================== Size = 1 ==================
HERE 2 : enable_memreq_tracing = 0
HERE 1 : enable_memreq_tracing = 1

===================== pushRequest in lsq_impl.hh ==================
===================== Load from Address = 0x7fffffffec70 ==================
===================== Size = 4 ==================

===================== pushRequest in lsq_impl.hh ==================
===================== Store at Address = 0x7fffffffec68 ==================
===================== Store Data = e1 ==================
===================== Size = 8 ==================

===================== pushRequest in lsq_impl.hh ==================
===================== Load from Address = 0x7fffffffec68 ==================
===================== Size = 8 ==================

===================== pushRequest in lsq_impl.hh ==================
===================== Load from Address = 0x7fffffffec70 ==================
===================== Size = 4 ==================

===================== pushRequest in lsq_impl.hh ==================
===================== Load from Address = 0x7fffffffec78 ==================
===================== Size = 4 ==================

===================== pushRequest in lsq_impl.hh ==================
===================== Load from Address = 0x7fffffffec70 ==================
===================== Size = 4 ==================

===================== pushRequest in lsq_impl.hh ==================
===================== Load from Address = 0x7fffffffec9d ==================
===================== Size = 1 ==================

===================== pushRequest in lsq_impl.hh ==================
===================== Store at Address = 0x7fffffffec68 ==================
===================== Store Data = 3 ==================
===================== Size = 8 ==================

===================== pushRequest in lsq_impl.hh ==================
===================== Load from Address = 0x7fffffffec68 ==================
===================== Size = 8 ==================
HERE 2 : enable_memreq_tracing = 0
HERE 1 : enable_memreq_tracing = 1

===================== pushRequest in lsq_impl.hh ==================
===================== Load from Address = 0x7fffffffec70 ==================
===================== Size = 4 ==================

===================== pushRequest in lsq_impl.hh ==================
===================== Store at Address = 0x7fffffffec68 ==================
===================== Store Data = e1 ==================
===================== Size = 8 ==================

===================== pushRequest in lsq_impl.hh ==================
===================== Load from Address = 0x7fffffffec68 ==================
===================== Size = 8 ==================

===================== pushRequest in lsq_impl.hh ==================
===================== Load from Address = 0x7fffffffec70 ==================
===================== Size = 4 ==================

===================== pushRequest in lsq_impl.hh ==================
===================== Load from Address = 0x7fffffffec78 ==================
===================== Size = 4 ==================

===================== pushRequest in lsq_impl.hh ==================
===================== Load from Address = 0x7fffffffec70 ==================
===================== Size = 4 ==================

===================== pushRequest in lsq_impl.hh ==================
===================== Store at Address = 0x7fffffffec68 ==================
===================== Store Data = 3 ==================
===================== Size = 8 ==================

===================== pushRequest in lsq_impl.hh ==================
===================== Load from Address = 0x7fffffffec9e ==================
===================== Size = 1 ==================
HERE 2 : enable_memreq_tracing = 0
HERE 1 : enable_memreq_tracing = 1

===================== pushRequest in lsq_impl.hh ==================
===================== Load from Address = 0x7fffffffec70 ==================
===================== Size = 4 ==================

===================== pushRequest in lsq_impl.hh ==================
===================== Store at Address = 0x7fffffffec68 ==================
===================== Store Data = e1 ==================
===================== Size = 8 ==================

===================== pushRequest in lsq_impl.hh ==================
===================== Load from Address = 0x7fffffffec68 ==================
===================== Size = 8 ==================

===================== pushRequest in lsq_impl.hh ==================
===================== Load from Address = 0x7fffffffec70 ==================
===================== Size = 4 ==================

===================== pushRequest in lsq_impl.hh ==================
===================== Load from Address = 0x7fffffffec78 ==================
===================== Size = 4 ==================

===================== pushRequest in lsq_impl.hh ==================
===================== Load from Address = 0x7fffffffec70 ==================
===================== Size = 4 ==================

===================== pushRequest in lsq_impl.hh ==================
===================== Store at Address = 0x7fffffffec68 ==================
===================== Store Data = 3 ==================
===================== Size = 8 ==================

===================== pushRequest in lsq_impl.hh ==================
===================== Load from Address = 0x7fffffffec9f ==================
===================== Size = 1 ==================
HERE 2 : enable_memreq_tracing = 0
HERE 1 : enable_memreq_tracing = 1

===================== pushRequest in lsq_impl.hh ==================
===================== Load from Address = 0x7fffffffec70 ==================
===================== Size = 4 ==================

===================== pushRequest in lsq_impl.hh ==================
===================== Store at Address = 0x7fffffffec68 ==================
===================== Store Data = e1 ==================
===================== Size = 8 ==================

===================== pushRequest in lsq_impl.hh ==================
===================== Load from Address = 0x7fffffffec68 ==================
===================== Size = 8 ==================

===================== pushRequest in lsq_impl.hh ==================
===================== Load from Address = 0x7fffffffec70 ==================
===================== Size = 4 ==================

===================== pushRequest in lsq_impl.hh ==================
===================== Load from Address = 0x7fffffffec78 ==================
===================== Size = 4 ==================

===================== pushRequest in lsq_impl.hh ==================
===================== Load from Address = 0x7fffffffec70 ==================
===================== Size = 4 ==================

===================== pushRequest in lsq_impl.hh ==================
===================== Store at Address = 0x7fffffffec68 ==================
===================== Store Data = 3 ==================
===================== Size = 8 ==================

===================== pushRequest in lsq_impl.hh ==================
===================== Load from Address = 0x7fffffffec68 ==================
===================== Size = 8 ==================

===================== pushRequest in lsq_impl.hh ==================
===================== Load from Address = 0x7fffffffeca0 ==================
===================== Size = 1 ==================
HERE 2 : enable_memreq_tracing = 0
HERE 1 : enable_memreq_tracing = 1

===================== pushRequest in lsq_impl.hh ==================
===================== Load from Address = 0x7fffffffec70 ==================
===================== Size = 4 ==================

===================== pushRequest in lsq_impl.hh ==================
===================== Store at Address = 0x7fffffffec68 ==================
===================== Store Data = e1 ==================
===================== Size = 8 ==================

===================== pushRequest in lsq_impl.hh ==================
===================== Load from Address = 0x7fffffffec68 ==================
===================== Size = 8 ==================

===================== pushRequest in lsq_impl.hh ==================
===================== Load from Address = 0x7fffffffec70 ==================
===================== Size = 4 ==================

===================== pushRequest in lsq_impl.hh ==================
===================== Load from Address = 0x7fffffffec78 ==================
===================== Size = 4 ==================

===================== pushRequest in lsq_impl.hh ==================
===================== Load from Address = 0x7fffffffec70 ==================
===================== Size = 4 ==================

===================== pushRequest in lsq_impl.hh ==================
===================== Load from Address = 0x7fffffffeca1 ==================
===================== Size = 1 ==================

===================== pushRequest in lsq_impl.hh ==================
===================== Store at Address = 0x7fffffffec68 ==================
===================== Store Data = 3 ==================
===================== Size = 8 ==================

===================== pushRequest in lsq_impl.hh ==================
===================== Load from Address = 0x7fffffffec68 ==================
===================== Size = 8 ==================
HERE 2 : enable_memreq_tracing = 0
HERE 1 : enable_memreq_tracing = 1

===================== pushRequest in lsq_impl.hh ==================
===================== Load from Address = 0x7fffffffec70 ==================
===================== Size = 4 ==================

===================== pushRequest in lsq_impl.hh ==================
===================== Store at Address = 0x7fffffffec68 ==================
===================== Store Data = e1 ==================
===================== Size = 8 ==================

===================== pushRequest in lsq_impl.hh ==================
===================== Load from Address = 0x7fffffffec68 ==================
===================== Size = 8 ==================

===================== pushRequest in lsq_impl.hh ==================
===================== Load from Address = 0x7fffffffec70 ==================
===================== Size = 4 ==================

===================== pushRequest in lsq_impl.hh ==================
===================== Load from Address = 0x7fffffffec78 ==================
===================== Size = 4 ==================

===================== pushRequest in lsq_impl.hh ==================
===================== Load from Address = 0x7fffffffec70 ==================
===================== Size = 4 ==================

===================== pushRequest in lsq_impl.hh ==================
===================== Store at Address = 0x7fffffffec68 ==================
===================== Store Data = 3 ==================
===================== Size = 8 ==================

===================== pushRequest in lsq_impl.hh ==================
===================== Load from Address = 0x7fffffffeca2 ==================
===================== Size = 1 ==================
HERE 2 : enable_memreq_tracing = 0
HERE 1 : enable_memreq_tracing = 1

===================== pushRequest in lsq_impl.hh ==================
===================== Load from Address = 0x7fffffffec70 ==================
===================== Size = 4 ==================

===================== pushRequest in lsq_impl.hh ==================
===================== Store at Address = 0x7fffffffec68 ==================
===================== Store Data = e1 ==================
===================== Size = 8 ==================

===================== pushRequest in lsq_impl.hh ==================
===================== Load from Address = 0x7fffffffec68 ==================
===================== Size = 8 ==================

===================== pushRequest in lsq_impl.hh ==================
===================== Load from Address = 0x7fffffffec70 ==================
===================== Size = 4 ==================

===================== pushRequest in lsq_impl.hh ==================
===================== Load from Address = 0x7fffffffec78 ==================
===================== Size = 4 ==================

===================== pushRequest in lsq_impl.hh ==================
===================== Load from Address = 0x7fffffffec70 ==================
===================== Size = 4 ==================

===================== pushRequest in lsq_impl.hh ==================
===================== Store at Address = 0x7fffffffec68 ==================
===================== Store Data = 3 ==================
===================== Size = 8 ==================

===================== pushRequest in lsq_impl.hh ==================
===================== Load from Address = 0x7fffffffeca3 ==================
===================== Size = 1 ==================
HERE 2 : enable_memreq_tracing = 0
HERE 1 : enable_memreq_tracing = 1

===================== pushRequest in lsq_impl.hh ==================
===================== Load from Address = 0x7fffffffec70 ==================
===================== Size = 4 ==================

===================== pushRequest in lsq_impl.hh ==================
===================== Store at Address = 0x7fffffffec68 ==================
===================== Store Data = e1 ==================
===================== Size = 8 ==================

===================== pushRequest in lsq_impl.hh ==================
===================== Load from Address = 0x7fffffffec68 ==================
===================== Size = 8 ==================

===================== pushRequest in lsq_impl.hh ==================
===================== Load from Address = 0x7fffffffec70 ==================
===================== Size = 4 ==================

===================== pushRequest in lsq_impl.hh ==================
===================== Load from Address = 0x7fffffffec78 ==================
===================== Size = 4 ==================

===================== pushRequest in lsq_impl.hh ==================
===================== Load from Address = 0x7fffffffec70 ==================
===================== Size = 4 ==================

===================== pushRequest in lsq_impl.hh ==================
===================== Store at Address = 0x7fffffffec68 ==================
===================== Store Data = 3 ==================
===================== Size = 8 ==================

===================== pushRequest in lsq_impl.hh ==================
===================== Load from Address = 0x7fffffffec68 ==================
===================== Size = 8 ==================

===================== pushRequest in lsq_impl.hh ==================
===================== Load from Address = 0x7fffffffeca4 ==================
===================== Size = 1 ==================
HERE 2 : enable_memreq_tracing = 0
HERE 1 : enable_memreq_tracing = 1

===================== pushRequest in lsq_impl.hh ==================
===================== Load from Address = 0x7fffffffec70 ==================
===================== Size = 4 ==================

===================== pushRequest in lsq_impl.hh ==================
===================== Store at Address = 0x7fffffffec68 ==================
===================== Store Data = e1 ==================
===================== Size = 8 ==================

===================== pushRequest in lsq_impl.hh ==================
===================== Load from Address = 0x7fffffffec68 ==================
===================== Size = 8 ==================

===================== pushRequest in lsq_impl.hh ==================
===================== Load from Address = 0x7fffffffec70 ==================
===================== Size = 4 ==================

===================== pushRequest in lsq_impl.hh ==================
===================== Load from Address = 0x7fffffffec78 ==================
===================== Size = 4 ==================

===================== pushRequest in lsq_impl.hh ==================
===================== Load from Address = 0x7fffffffec70 ==================
===================== Size = 4 ==================

===================== pushRequest in lsq_impl.hh ==================
===================== Load from Address = 0x7fffffffeca5 ==================
===================== Size = 1 ==================

===================== pushRequest in lsq_impl.hh ==================
===================== Store at Address = 0x7fffffffec68 ==================
===================== Store Data = 3 ==================
===================== Size = 8 ==================

===================== pushRequest in lsq_impl.hh ==================
===================== Load from Address = 0x7fffffffec68 ==================
===================== Size = 8 ==================
HERE 2 : enable_memreq_tracing = 0
HERE 1 : enable_memreq_tracing = 1

===================== pushRequest in lsq_impl.hh ==================
===================== Load from Address = 0x7fffffffec70 ==================
===================== Size = 4 ==================

===================== pushRequest in lsq_impl.hh ==================
===================== Store at Address = 0x7fffffffec68 ==================
===================== Store Data = e1 ==================
===================== Size = 8 ==================

===================== pushRequest in lsq_impl.hh ==================
===================== Load from Address = 0x7fffffffec68 ==================
===================== Size = 8 ==================

===================== pushRequest in lsq_impl.hh ==================
===================== Load from Address = 0x7fffffffec70 ==================
===================== Size = 4 ==================

===================== pushRequest in lsq_impl.hh ==================
===================== Load from Address = 0x7fffffffec78 ==================
===================== Size = 4 ==================

===================== pushRequest in lsq_impl.hh ==================
===================== Load from Address = 0x7fffffffec70 ==================
===================== Size = 4 ==================

===================== pushRequest in lsq_impl.hh ==================
===================== Store at Address = 0x7fffffffec68 ==================
===================== Store Data = 3 ==================
===================== Size = 8 ==================

===================== pushRequest in lsq_impl.hh ==================
===================== Load from Address = 0x7fffffffeca6 ==================
===================== Size = 1 ==================
HERE 2 : enable_memreq_tracing = 0
HERE 1 : enable_memreq_tracing = 1

===================== pushRequest in lsq_impl.hh ==================
===================== Load from Address = 0x7fffffffec70 ==================
===================== Size = 4 ==================

===================== pushRequest in lsq_impl.hh ==================
===================== Store at Address = 0x7fffffffec68 ==================
===================== Store Data = e1 ==================
===================== Size = 8 ==================

===================== pushRequest in lsq_impl.hh ==================
===================== Load from Address = 0x7fffffffec68 ==================
===================== Size = 8 ==================

===================== pushRequest in lsq_impl.hh ==================
===================== Load from Address = 0x7fffffffec70 ==================
===================== Size = 4 ==================

===================== pushRequest in lsq_impl.hh ==================
===================== Load from Address = 0x7fffffffec78 ==================
===================== Size = 4 ==================

===================== pushRequest in lsq_impl.hh ==================
===================== Load from Address = 0x7fffffffec70 ==================
===================== Size = 4 ==================

===================== pushRequest in lsq_impl.hh ==================
===================== Store at Address = 0x7fffffffec68 ==================
===================== Store Data = 3 ==================
===================== Size = 8 ==================

===================== pushRequest in lsq_impl.hh ==================
===================== Load from Address = 0x7fffffffeca7 ==================
===================== Size = 1 ==================
HERE 2 : enable_memreq_tracing = 0
HERE 1 : enable_memreq_tracing = 1

===================== pushRequest in lsq_impl.hh ==================
===================== Load from Address = 0x7fffffffec70 ==================
===================== Size = 4 ==================

===================== pushRequest in lsq_impl.hh ==================
===================== Store at Address = 0x7fffffffec68 ==================
===================== Store Data = e1 ==================
===================== Size = 8 ==================

===================== pushRequest in lsq_impl.hh ==================
===================== Load from Address = 0x7fffffffec68 ==================
===================== Size = 8 ==================

===================== pushRequest in lsq_impl.hh ==================
===================== Load from Address = 0x7fffffffec70 ==================
===================== Size = 4 ==================

===================== pushRequest in lsq_impl.hh ==================
===================== Load from Address = 0x7fffffffec78 ==================
===================== Size = 4 ==================

===================== pushRequest in lsq_impl.hh ==================
===================== Load from Address = 0x7fffffffec70 ==================
===================== Size = 4 ==================

===================== pushRequest in lsq_impl.hh ==================
===================== Store at Address = 0x7fffffffec68 ==================
===================== Store Data = 3 ==================
===================== Size = 8 ==================

===================== pushRequest in lsq_impl.hh ==================
===================== Load from Address = 0x7fffffffec68 ==================
===================== Size = 8 ==================

===================== pushRequest in lsq_impl.hh ==================
===================== Load from Address = 0x7fffffffeca8 ==================
===================== Size = 1 ==================
HERE 2 : enable_memreq_tracing = 0
HERE 1 : enable_memreq_tracing = 1

===================== pushRequest in lsq_impl.hh ==================
===================== Load from Address = 0x7fffffffec70 ==================
===================== Size = 4 ==================

===================== pushRequest in lsq_impl.hh ==================
===================== Store at Address = 0x7fffffffec68 ==================
===================== Store Data = e1 ==================
===================== Size = 8 ==================

===================== pushRequest in lsq_impl.hh ==================
===================== Load from Address = 0x7fffffffec68 ==================
===================== Size = 8 ==================

===================== pushRequest in lsq_impl.hh ==================
===================== Load from Address = 0x7fffffffec70 ==================
===================== Size = 4 ==================

===================== pushRequest in lsq_impl.hh ==================
===================== Load from Address = 0x7fffffffec78 ==================
===================== Size = 4 ==================

===================== pushRequest in lsq_impl.hh ==================
===================== Load from Address = 0x7fffffffec70 ==================
===================== Size = 4 ==================

===================== pushRequest in lsq_impl.hh ==================
===================== Load from Address = 0x7fffffffeca9 ==================
===================== Size = 1 ==================

===================== pushRequest in lsq_impl.hh ==================
===================== Store at Address = 0x7fffffffec68 ==================
===================== Store Data = 3 ==================
===================== Size = 8 ==================

===================== pushRequest in lsq_impl.hh ==================
===================== Load from Address = 0x7fffffffec68 ==================
===================== Size = 8 ==================
HERE 2 : enable_memreq_tracing = 0
HERE 1 : enable_memreq_tracing = 1

===================== pushRequest in lsq_impl.hh ==================
===================== Load from Address = 0x7fffffffec70 ==================
===================== Size = 4 ==================

===================== pushRequest in lsq_impl.hh ==================
===================== Store at Address = 0x7fffffffec68 ==================
===================== Store Data = e1 ==================
===================== Size = 8 ==================

===================== pushRequest in lsq_impl.hh ==================
===================== Load from Address = 0x7fffffffec68 ==================
===================== Size = 8 ==================

===================== pushRequest in lsq_impl.hh ==================
===================== Load from Address = 0x7fffffffec70 ==================
===================== Size = 4 ==================

===================== pushRequest in lsq_impl.hh ==================
===================== Load from Address = 0x7fffffffec78 ==================
===================== Size = 4 ==================

===================== pushRequest in lsq_impl.hh ==================
===================== Load from Address = 0x7fffffffec70 ==================
===================== Size = 4 ==================

===================== pushRequest in lsq_impl.hh ==================
===================== Store at Address = 0x7fffffffec68 ==================
===================== Store Data = 3 ==================
===================== Size = 8 ==================

===================== pushRequest in lsq_impl.hh ==================
===================== Load from Address = 0x7fffffffecaa ==================
===================== Size = 1 ==================
HERE 2 : enable_memreq_tracing = 0
HERE 1 : enable_memreq_tracing = 1

===================== pushRequest in lsq_impl.hh ==================
===================== Load from Address = 0x7fffffffec70 ==================
===================== Size = 4 ==================

===================== pushRequest in lsq_impl.hh ==================
===================== Store at Address = 0x7fffffffec68 ==================
===================== Store Data = e1 ==================
===================== Size = 8 ==================

===================== pushRequest in lsq_impl.hh ==================
===================== Load from Address = 0x7fffffffec68 ==================
===================== Size = 8 ==================

===================== pushRequest in lsq_impl.hh ==================
===================== Load from Address = 0x7fffffffec70 ==================
===================== Size = 4 ==================

===================== pushRequest in lsq_impl.hh ==================
===================== Load from Address = 0x7fffffffec78 ==================
===================== Size = 4 ==================

===================== pushRequest in lsq_impl.hh ==================
===================== Load from Address = 0x7fffffffec70 ==================
===================== Size = 4 ==================

===================== pushRequest in lsq_impl.hh ==================
===================== Store at Address = 0x7fffffffec68 ==================
===================== Store Data = 3 ==================
===================== Size = 8 ==================

===================== pushRequest in lsq_impl.hh ==================
===================== Load from Address = 0x7fffffffecab ==================
===================== Size = 1 ==================
HERE 2 : enable_memreq_tracing = 0
HERE 1 : enable_memreq_tracing = 1

===================== pushRequest in lsq_impl.hh ==================
===================== Load from Address = 0x7fffffffec70 ==================
===================== Size = 4 ==================

[...]

===================== pushRequest in lsq_impl.hh ==================
===================== Load from Address = 0x7fffffffec68 ==================
===================== Size = 8 ==================

===================== pushRequest in lsq_impl.hh ==================
===================== Load from Address = 0x7fffffffec70 ==================
===================== Size = 4 ==================

===================== pushRequest in lsq_impl.hh ==================
===================== Load from Address = 0x7fffffffec78 ==================
===================== Size = 4 ==================

===================== pushRequest in lsq_impl.hh ==================
===================== Load from Address = 0x7fffffffec70 ==================
===================== Size = 4 ==================

===================== pushRequest in lsq_impl.hh ==================
===================== Store at Address = 0x7fffffffec68 ==================
===================== Store Data = 3 ==================
===================== Size = 8 ==================

===================== pushRequest in lsq_impl.hh ==================
===================== Load from Address = 0x7fffffffec68 ==================
===================== Size = 8 ==================

===================== pushRequest in lsq_impl.hh ==================
===================== Load from Address = 0x7fffffffecdc ==================
===================== Size = 1 ==================
HERE 2 : enable_memreq_tracing = 0
HERE 1 : enable_memreq_tracing = 1

===================== pushRequest in lsq_impl.hh ==================
===================== Load from Address = 0x7fffffffec70 ==================
===================== Size = 4 ==================

===================== pushRequest in lsq_impl.hh ==================
===================== Store at Address = 0x7fffffffec68 ==================
===================== Store Data = e1 ==================
===================== Size = 8 ==================

===================== pushRequest in lsq_impl.hh ==================
===================== Load from Address = 0x7fffffffec68 ==================
===================== Size = 8 ==================

===================== pushRequest in lsq_impl.hh ==================
===================== Load from Address = 0x7fffffffec70 ==================
===================== Size = 4 ==================

===================== pushRequest in lsq_impl.hh ==================
===================== Load from Address = 0x7fffffffec78 ==================
===================== Size = 4 ==================

===================== pushRequest in lsq_impl.hh ==================
===================== Load from Address = 0x7fffffffec70 ==================
===================== Size = 4 ==================

===================== pushRequest in lsq_impl.hh ==================
===================== Load from Address = 0x7fffffffecdd ==================
===================== Size = 1 ==================

===================== pushRequest in lsq_impl.hh ==================
===================== Store at Address = 0x7fffffffec68 ==================
===================== Store Data = 3 ==================
===================== Size = 8 ==================

===================== pushRequest in lsq_impl.hh ==================
===================== Load from Address = 0x7fffffffec68 ==================
===================== Size = 8 ==================
HERE 2 : enable_memreq_tracing = 0
HERE 1 : enable_memreq_tracing = 1

===================== pushRequest in lsq_impl.hh ==================
===================== Load from Address = 0x7fffffffec70 ==================
===================== Size = 4 ==================

===================== pushRequest in lsq_impl.hh ==================
===================== Store at Address = 0x7fffffffec68 ==================
===================== Store Data = e1 ==================
===================== Size = 8 ==================

===================== pushRequest in lsq_impl.hh ==================
===================== Load from Address = 0x7fffffffec68 ==================
===================== Size = 8 ==================

===================== pushRequest in lsq_impl.hh ==================
===================== Load from Address = 0x7fffffffec70 ==================
===================== Size = 4 ==================

===================== pushRequest in lsq_impl.hh ==================
===================== Load from Address = 0x7fffffffec78 ==================
===================== Size = 4 ==================

===================== pushRequest in lsq_impl.hh ==================
===================== Load from Address = 0x7fffffffec70 ==================
===================== Size = 4 ==================

===================== pushRequest in lsq_impl.hh ==================
===================== Store at Address = 0x7fffffffec68 ==================
===================== Store Data = 3 ==================
===================== Size = 8 ==================

===================== pushRequest in lsq_impl.hh ==================
===================== Load from Address = 0x7fffffffecde ==================
===================== Size = 1 ==================
HERE 2 : enable_memreq_tracing = 0
HERE 1 : enable_memreq_tracing = 1

===================== pushRequest in lsq_impl.hh ==================
===================== Load from Address = 0x7fffffffec70 ==================
===================== Size = 4 ==================

===================== pushRequest in lsq_impl.hh ==================
===================== Store at Address = 0x7fffffffec68 ==================
===================== Store Data = e1 ==================
===================== Size = 8 ==================

===================== pushRequest in lsq_impl.hh ==================
===================== Load from Address = 0x7fffffffec68 ==================
===================== Size = 8 ==================

===================== pushRequest in lsq_impl.hh ==================
===================== Load from Address = 0x7fffffffec70 ==================
===================== Size = 4 ==================

===================== pushRequest in lsq_impl.hh ==================
===================== Load from Address = 0x7fffffffec78 ==================
===================== Size = 4 ==================

===================== pushRequest in lsq_impl.hh ==================
===================== Load from Address = 0x7fffffffec70 ==================
===================== Size = 4 ==================

===================== pushRequest in lsq_impl.hh ==================
===================== Store at Address = 0x7fffffffec68 ==================
===================== Store Data = 3 ==================
===================== Size = 8 ==================

===================== pushRequest in lsq_impl.hh ==================
===================== Load from Address = 0x7fffffffecdf ==================
===================== Size = 1 ==================
HERE 2 : enable_memreq_tracing = 0
HERE 1 : enable_memreq_tracing = 1

===================== pushRequest in lsq_impl.hh ==================
===================== Load from Address = 0x7fffffffec70 ==================
===================== Size = 4 ==================

===================== pushRequest in lsq_impl.hh ==================
===================== Store at Address = 0x7fffffffec68 ==================
===================== Store Data = e1 ==================
===================== Size = 8 ==================

===================== pushRequest in lsq_impl.hh ==================
===================== Load from Address = 0x7fffffffec68 ==================
===================== Size = 8 ==================

===================== pushRequest in lsq_impl.hh ==================
===================== Load from Address = 0x7fffffffec70 ==================
===================== Size = 4 ==================

===================== pushRequest in lsq_impl.hh ==================
===================== Load from Address = 0x7fffffffec78 ==================
===================== Size = 4 ==================

===================== pushRequest in lsq_impl.hh ==================
===================== Load from Address = 0x7fffffffec70 ==================
===================== Size = 4 ==================

===================== pushRequest in lsq_impl.hh ==================
===================== Store at Address = 0x7fffffffec68 ==================
===================== Store Data = 3 ==================
===================== Size = 8 ==================

===================== pushRequest in lsq_impl.hh ==================
===================== Load from Address = 0x7fffffffec68 ==================
===================== Size = 8 ==================

===================== pushRequest in lsq_impl.hh ==================
===================== Load from Address = 0x7fffffffece0 ==================
===================== Size = 1 ==================
HERE 2 : enable_memreq_tracing = 0
HERE 1 : enable_memreq_tracing = 1

===================== pushRequest in lsq_impl.hh ==================
===================== Load from Address = 0x7fffffffec70 ==================
===================== Size = 4 ==================

===================== pushRequest in lsq_impl.hh ==================
===================== Store at Address = 0x7fffffffec68 ==================
===================== Store Data = e1 ==================
===================== Size = 8 ==================

===================== pushRequest in lsq_impl.hh ==================
===================== Load from Address = 0x7fffffffec68 ==================
===================== Size = 8 ==================

===================== pushRequest in lsq_impl.hh ==================
===================== Load from Address = 0x7fffffffec70 ==================
===================== Size = 4 ==================

===================== pushRequest in lsq_impl.hh ==================
===================== Load from Address = 0x7fffffffec78 ==================
===================== Size = 4 ==================

===================== pushRequest in lsq_impl.hh ==================
===================== Load from Address = 0x7fffffffec70 ==================
===================== Size = 4 ==================

===================== pushRequest in lsq_impl.hh ==================
===================== Load from Address = 0x7fffffffece1 ==================
===================== Size = 1 ==================

===================== pushRequest in lsq_impl.hh ==================
===================== Store at Address = 0x7fffffffec68 ==================
===================== Store Data = 3 ==================
===================== Size = 8 ==================

===================== pushRequest in lsq_impl.hh ==================
===================== Load from Address = 0x7fffffffec68 ==================
===================== Size = 8 ==================
HERE 2 : enable_memreq_tracing = 0
HERE 1 : enable_memreq_tracing = 1

===================== pushRequest in lsq_impl.hh ==================
===================== Load from Address = 0x7fffffffec70 ==================
===================== Size = 4 ==================

===================== pushRequest in lsq_impl.hh ==================
===================== Store at Address = 0x7fffffffec68 ==================
===================== Store Data = e1 ==================
===================== Size = 8 ==================

===================== pushRequest in lsq_impl.hh ==================
===================== Load from Address = 0x7fffffffec68 ==================
===================== Size = 8 ==================

===================== pushRequest in lsq_impl.hh ==================
===================== Load from Address = 0x7fffffffec70 ==================
===================== Size = 4 ==================

===================== pushRequest in lsq_impl.hh ==================
===================== Load from Address = 0x7fffffffec78 ==================
===================== Size = 4 ==================

===================== pushRequest in lsq_impl.hh ==================
===================== Load from Address = 0x7fffffffec70 ==================
===================== Size = 4 ==================

===================== pushRequest in lsq_impl.hh ==================
===================== Store at Address = 0x7fffffffec68 ==================
===================== Store Data = 3 ==================
===================== Size = 8 ==================

===================== pushRequest in lsq_impl.hh ==================
===================== Load from Address = 0x7fffffffece2 ==================
===================== Size = 1 ==================
HERE 2 : enable_memreq_tracing = 0
HERE 1 : enable_memreq_tracing = 1

===================== pushRequest in lsq_impl.hh ==================
===================== Load from Address = 0x7fffffffec70 ==================
===================== Size = 4 ==================

===================== pushRequest in lsq_impl.hh ==================
===================== Store at Address = 0x7fffffffec68 ==================
===================== Store Data = e1 ==================
===================== Size = 8 ==================

===================== pushRequest in lsq_impl.hh ==================
===================== Load from Address = 0x7fffffffec68 ==================
===================== Size = 8 ==================

===================== pushRequest in lsq_impl.hh ==================
===================== Load from Address = 0x7fffffffec70 ==================
===================== Size = 4 ==================

===================== pushRequest in lsq_impl.hh ==================
===================== Load from Address = 0x7fffffffec78 ==================
===================== Size = 4 ==================

===================== pushRequest in lsq_impl.hh ==================
===================== Load from Address = 0x7fffffffec70 ==================
===================== Size = 4 ==================

===================== pushRequest in lsq_impl.hh ==================
===================== Store at Address = 0x7fffffffec68 ==================
===================== Store Data = 3 ==================
===================== Size = 8 ==================

===================== pushRequest in lsq_impl.hh ==================
===================== Load from Address = 0x7fffffffece3 ==================
===================== Size = 1 ==================
HERE 2 : enable_memreq_tracing = 0
HERE 1 : enable_memreq_tracing = 1

===================== pushRequest in lsq_impl.hh ==================
===================== Load from Address = 0x7fffffffec70 ==================
===================== Size = 4 ==================

===================== pushRequest in lsq_impl.hh ==================
===================== Store at Address = 0x7fffffffec68 ==================
===================== Store Data = e1 ==================
===================== Size = 8 ==================

===================== pushRequest in lsq_impl.hh ==================
===================== Load from Address = 0x7fffffffec68 ==================
===================== Size = 8 ==================

===================== pushRequest in lsq_impl.hh ==================
===================== Load from Address = 0x7fffffffec70 ==================
===================== Size = 4 ==================

===================== pushRequest in lsq_impl.hh ==================
===================== Load from Address = 0x7fffffffec78 ==================
===================== Size = 4 ==================

===================== pushRequest in lsq_impl.hh ==================
===================== Load from Address = 0x7fffffffec70 ==================
===================== Size = 4 ==================

===================== pushRequest in lsq_impl.hh ==================
===================== Store at Address = 0x7fffffffec68 ==================
===================== Store Data = 3 ==================
===================== Size = 8 ==================

===================== pushRequest in lsq_impl.hh ==================
===================== Load from Address = 0x7fffffffec68 ==================
===================== Size = 8 ==================

===================== pushRequest in lsq_impl.hh ==================
===================== Load from Address = 0x7fffffffece4 ==================	----------------------	LOCATION OF EXTRA ACCESS  -----------------------------------------------------------------
===================== Size = 1 ==================
==== squash instn in lsq_unit_impl.hh = 50756 ---------
HERE 2 : enable_memreq_tracing = 0
HERE 1 : enable_memreq_tracing = 1

===================== pushRequest in lsq_impl.hh ==================
===================== Load from Address = 0x7fffffffec70 ==================
===================== Size = 4 ==================

===================== pushRequest in lsq_impl.hh ==================
===================== Store at Address = 0x7fffffffec68 ==================
===================== Store Data = 3 ==================
===================== Size = 8 ==================
==== squash instn in lsq_unit_impl.hh = 50825 ---------

===================== pushRequest in lsq_impl.hh ==================
===================== Load from Address = 0x7fffffffec68 ==================
===================== Size = 8 ==================

===================== pushRequest in lsq_impl.hh ==================
===================== Load from Address = 0x7fffffffec70 ==================
===================== Size = 4 ==================
HERE 2 : enable_memreq_tracing = 0
HERE 1 : enable_memreq_tracing = 1

===================== pushRequest in lsq_impl.hh ==================
===================== Load from Address = 0x7fffffffec70 ==================
===================== Size = 4 ==================

===================== pushRequest in lsq_impl.hh ==================
===================== Store at Address = 0x7fffffffec70 ==================
===================== Store Data = 66 ==================
===================== Size = 4 ==================

===================== pushRequest in lsq_impl.hh ==================
===================== Load from Address = 0x7fffffffec70 ==================
===================== Size = 4 ==================
==== squash instn in lsq_unit_impl.hh = 50941 ---------
HERE 2 : enable_memreq_tracing = 0
HERE 1 : enable_memreq_tracing = 1

===================== pushRequest in lsq_impl.hh ==================
===================== Load from Address = 0x7fffffffec68 ==================
===================== Size = 8 ==================

===================== pushRequest in lsq_impl.hh ==================
===================== Load from Address = 0x7fffffffece8 ==================
===================== Size = 8 ==================

===================== pushRequest in lsq_impl.hh ==================
===================== Load from Address = 0x6bd8a8 ==================
===================== Size = 8 ==================

===================== pushRequest in lsq_impl.hh ==================
===================== Store at Address = 0x7fffffffec68 ==================
===================== Store Data = 38 ==================
===================== Size = 8 ==================

===================== pushRequest in lsq_impl.hh ==================
===================== Load from Address = 0x7fffffffecf0 ==================
===================== Size = 8 ==================
==== squash instn in lsq_unit_impl.hh = 51039 ---------
==== squash instn in lsq_unit_impl.hh = 51034 ---------
HERE 2 : enable_memreq_tracing = 0
HERE 1 : enable_memreq_tracing = 1

===================== pushRequest in lsq_impl.hh ==================
===================== Store at Address = 0x7fffffffece8 ==================
===================== Store Data = 9a ==================
===================== Size = 8 ==================

===================== pushRequest in lsq_impl.hh ==================
===================== Load from Address = 0x6bb8d4 ==================
===================== Size = 1 ==================
==== squash instn in lsq_unit_impl.hh = 51083 ---------
HERE 2 : enable_memreq_tracing = 0
HERE 1 : enable_memreq_tracing = 1
HERE 2 : enable_memreq_tracing = 0
Exiting @ tick 33227000 because exiting with last active thread context
