gem5 Simulator System.  http://gem5.org
gem5 is copyrighted software; use the --copyright option for details.

gem5 compiled Apr  1 2020 15:50:10
gem5 started Apr  2 2020 15:08:34
gem5 executing on tarund-desk, pid 5209
command line: build/X86/gem5.opt configs/example/se.py --cmd=./tests/my_progs/spectre_test_3_clean --cpu-type=DerivO3CPU --caches --mem-size=4GB --l1d_size=1kB --l1i_size=1kB --l1d_assoc=1 --l1i_assoc=1 --cacheline_size=64

Global frequency set at 1000000000000 ticks per second
**** REAL SIMULATION ****

Address of a1_len = 0x6b90f0 

Address of i = 0x7fffffffecf0 

Address of j = 0x7fffffffecf4 

Address of x = 0x6bc3a0 

Address of y = 0x6bc428 

Address of z = 0x6bc424 

Address of array1 = 0x6bc440 

Address of array2 = 0x6bc3c0 

Address of array3 = 0x6bc5e0 
HERE 1 : enable_memreq_tracing = 1


---------------- Done Training -----------------------
-- PC: (0x4498bf) 

-- PC: (0x4498c1) 

-- PC: (0x4498c1) 

-- PC: (0x4498c1) 

-- PC: (0x4498c1) 

-- PC: (0x4498c1) 

-- PC: (0x4498c1) 

-- PC: (0x4498c1) 

-- PC: (0x4498c1) 

-- PC: (0x4498c7) 

-- PC: (0x4498c7) 

-- PC: (0x4498c7) 

-- PC: (0x4498c7) 

-- PC: (0x4498c7) 

-- PC: (0x4498c7) 

-- PC: (0x4498c7) 

-- PC: (0x4498c7) 

-- PC: (0x4498c7) 

-- PC: (0x4498c7) 

-- PC: (0x4498c7) 

-- PC: (0x4498c7) 

-- PC: (0x4498c7) 

-- PC: (0x4498c7) 

-- PC: (0x4498c9) 

-- PC: (0x4498c7) 

-- PC: (0x4498c9) 

-- PC: (0x4498c7) 

-- PC: (0x4498c9) 

-- PC: (0x4498c9) 

-- PC: (0x4498c9) 

-- PC: (0x4498c9) 

-- PC: (0x4498c9) 

-- PC: (0x4498c9) 

-- PC: (0x4498c9) 

-- PC: (0x4498c9) 

-- PC: (0x4498c9) 

-- PC: (0x4498c9) 

-- PC: (0x4498c9) 

-- PC: (0x4498c9) 

-- PC: (0x4498c9) 

-- PC: (0x4498c9) 

-- PC: (0x4498c9) 

-- PC: (0x41364d) 

-- PC: (0x4498c9) 

-- PC: (0x41364d) 

-- PC: (0x41364d) 

-- PC: (0x41364d) 

-- PC: (0x41364d) 

-- PC: (0x41364d) 

-- ReadReq [13640:1367f] IF Hit -- Blk -> state: 7 (E) valid: 1 writable: 1 readable: 1 dirty: 0 | tag: 0x4d set: 0x9 way: 0 Latency: 2 

-- PC: (0x41364d) 

-- PC: (0x41364d) 

-- PC: (0x41364d) 

-- PC: (0x41364d) 

-- PC: (0x41364d) 

-- PC: (0x413650) 

-- PC: (0x413650) 

-- PC: (0x413650) 

-- PC: (0x413650) 

-- PC: (0x413650) 

-- PC: (0x413650) 

-- PC: (0x413650) 

-- PC: (0x413650) 

-- PC: (0x413650) 

-- PC: (0x413650) 

-- PC: (0x413650) 

-- PC: (0x413652) 

-- PC: (0x413650) 

-- PC: (0x413652) 

-- PC: (0x413650) 

-- PC: (0x413652) 

-- PC: (0x413652) 

-- PC: (0x413652) 

-- PC: (0x413652) 

-- PC: (0x413652) 

-- PC: (0x413652) 

-- PC: (0x413655) 

-- PC: (0x413655) 

-- PC: (0x413655) 

-- PC: (0x413655) 

-- PC: (0x413655) 

-- PC: (0x413655) 

-- PC: (0x413658) 

-- PC: (0x413658) 

-- PC: (0x413658) 

-- PC: (0x413658) 

-- PC: (0x413658) 

-- PC: (0x41365b) 

-- PC: (0x41365b) 

-- PC: (0x41365b) 

-- PC: (0x41365b) 

-- PC: (0x41365b) 

-- PC: (0x41365b) 

-- PC: (0x41365b) 

-- PC: (0x41365b) 

-- PC: (0x41365b) 

-- PC: (0x41365b) 

-- PC: (0x41365b) 

-- PC: (0x41365b) 

-- PC: (0x41365b) 

-- PC: (0x41365b) 

-- PC: (0x41365b) 

-- PC: (0x41365b) 

-- PC: (0x4136b0) 

-- PC: (0x41365b) 

-- PC: (0x4136b0) 

-- PC: (0x41365b) 

-- PC: (0x4136b0) 

-- PC: (0x4136b0) 

-- PC: (0x4136b0) 

-- PC: (0x4136b0) 

-- PC: (0x4136b0) 

-- ReadReq [13680:136bf] IF Miss --  Latency: 502 

-- PC: (0x4498b0) 

-- PC: (0x4498b0) 

-- PC: (0x4498b6) 

-- PC: (0x4498b6) 

-- PC: (0x4498b6) 

-- PC: (0x4498b6) 

-- PC: (0x4498b8) 

-- PC: (0x4498b8) 

-- PC: (0x4498b8) 

-- PC: (0x4498b8) 

-- PC: (0x4498b8) 

-- PC: (0x4498b8) 

-- PC: (0x4498b8) 

-- PC: (0x4498b8) 

-- PC: (0x4498ba) 

-- PC: (0x4498ba) 

-- PC: (0x4498ba) 

-- PC: (0x4498ba) 

-- PC: (0x4498bf) 

-- PC: (0x4498bf) 

-- PC: (0x4498bf) 

-- PC: (0x4498bf) 

-- PC: (0x4498c1) 

-- PC: (0x4498c1) 

-- PC: (0x4498c9) 

-- PC: (0x4498c9) 

-- Tick (136366500) -- ISN: (89082) : L from (0x7fffffffebf8) -- of Size = (8)-- PC: (0x4498c9) 

 -- vaddr (0x7fffffffebf8) -- paddr (0xc5bf8) 

-- ReadReq [c5bf8:c5bff] Hit -- Blk -> state: f (M) valid: 1 writable: 1 readable: 1 dirty: 1 | tag: 0x316 set: 0xf way: 0 Latency: 2 

-- PC: (0x4498c1) 

-- PC: (0x4498c1) 

-- PC: (0x4498c1) 

-- PC: (0x4498c1) 

-- PC: (0x4498c7) 

-- PC: (0x4498c7) 

-- PC: (0x4498c7) 

-- PC: (0x4498c7) 

-- PC: (0x4498c7) 

-- PC: (0x4498c7) 

-- PC: (0x4498c7) 

-- PC: (0x4498c7) 

-- PC: (0x4498c9) 

-- PC: (0x4498c9) 

-- PC: (0x4498c9) 

-- PC: (0x4498c9) 

-- PC: (0x4498c9) 

-- PC: (0x4498c9) 

-- PC: (0x4498c9) 

-- PC: (0x4498c9) 

-- PC: (0x41364d) 

-- PC: (0x41364d) 

-- PC: (0x41364d) 

-- PC: (0x41364d) 

-- PC: (0x413650) 

-- PC: (0x413650) 

-- PC: (0x413650) 

-- PC: (0x413650) 

-- PC: (0x413650) 

-- PC: (0x413650) 

-- PC: (0x413650) 

-- PC: (0x413650) 

-- PC: (0x413652) 

-- PC: (0x413652) 

-- PC: (0x413652) 

-- PC: (0x413652) 

-- PC: (0x413655) 

-- PC: (0x413655) 

-- PC: (0x413655) 

-- PC: (0x413655) 

-- PC: (0x413658) 

-- PC: (0x413658) 

-- PC: (0x413658) 

-- PC: (0x413658) 

-- PC: (0x41365b) 

-- PC: (0x41365b) 

-- PC: (0x41365b) 

-- PC: (0x41365b) 

-- PC: (0x41365b) 

-- PC: (0x41365b) 

-- PC: (0x41365b) 

-- PC: (0x41365b) 

-- PC: (0x4136b0) 

-- PC: (0x4136b0) 

-- PC: (0x4136b0) 

-- PC: (0x4136b0) 

-- PC: (0x4136b0) 

-- PC: (0x4136b0) 

-- PC: (0x4136b3) 

-- PC: (0x4136b3) 

-- PC: (0x4136b3) 

-- PC: (0x4136b3) 

-- PC: (0x4136b3) 

-- PC: (0x4136b3) 

-- PC: (0x4136b6) 

-- PC: (0x4136b6) 

-- PC: (0x4136b6) 

-- PC: (0x4136b6) 

-- PC: (0x4136b6) 

-- PC: (0x4136b6) 

-- PC: (0x4136b6) 

-- PC: (0x4136b6) 

-- PC: (0x4136b6) 

-- PC: (0x4136b6) 

-- PC: (0x4136b6) 

-- PC: (0x4136b6) 

-- PC: (0x41368b) 

-- PC: (0x4136b6) 

-- PC: (0x41368b) 

-- PC: (0x4136b6) 

-- PC: (0x41368b) 

-- PC: (0x41368b) 

-- PC: (0x41368b) 

-- PC: (0x41368b) 

-- PC: (0x41368b) 

-- PC: (0x41368b) 

-- PC: (0x41368b) 

-- PC: (0x41368b) 

-- PC: (0x41368b) 

-- PC: (0x41368b) 

-- PC: (0x41368b) 

-- PC: (0x413693) 

-- PC: (0x413693) 

-- PC: (0x413693) 

-- PC: (0x413693) 

-- PC: (0x413693) 

-- PC: (0x413693) 

-- PC: (0x413696) 

-- PC: (0x413696) 

-- PC: (0x413696) 

-- PC: (0x413696) 

-- PC: (0x413696) 

-- PC: (0x413696) 

-- PC: (0x413696) 

-- PC: (0x413696) 

-- PC: (0x413696) 

-- PC: (0x413696) 

-- PC: (0x413696) 

-- PC: (0x413696) 

-- PC: (0x4136a3) 

-- PC: (0x413696) 

-- PC: (0x4136a3) 

-- PC: (0x413696) 

-- PC: (0x4136a3) 

-- PC: (0x4136a3) 

-- PC: (0x4136a3) 

-- PC: (0x4136a3) 

-- PC: (0x4136a3) 

-- PC: (0x4136a3) 

-- PC: (0x4136a3) 

-- PC: (0x4136a3) 

-- PC: (0x4136a3) 

-- PC: (0x4136a3) 

-- PC: (0x4136a3) 

-- PC: (0x4136a7) 

-- PC: (0x4136a7) 

-- PC: (0x4136a7) 

-- PC: (0x4136a7) 

-- PC: (0x4136a7) 

-- PC: (0x4136a7) 

-- PC: (0x4136a7) 

-- PC: (0x4136a7) 

-- PC: (0x4136a7) 

-- PC: (0x4136a7) 

-- PC: (0x4136a8) 

-- PC: (0x4136a8) 

-- PC: (0x4136a8) 

-- PC: (0x4136a8) 

-- PC: (0x4136a8) 

-- PC: (0x4136a8) 

-- PC: (0x4136a8) 

-- PC: (0x4136a8) 

-- PC: (0x4136a8) 

-- PC: (0x4136a9) 

-- PC: (0x4136a9) 

-- PC: (0x4136a9) 

-- PC: (0x4136a9) 

-- PC: (0x4136a9) 

-- PC: (0x4136a9) 

-- PC: (0x4136a9) 

-- PC: (0x4136a9) 

-- PC: (0x4136a9) 

-- PC: (0x4136a9) 

-- PC: (0x4136a9) 

-- PC: (0x4136a9) 

-- PC: (0x4136a9) 

-- PC: (0x4136ab) 

-- PC: (0x4136ab) 

-- PC: (0x4136ab) 

-- PC: (0x4136ab) 

-- PC: (0x4136ab) 

-- PC: (0x4136ab) 

-- PC: (0x4136ab) 

-- PC: (0x4136ab) 

-- PC: (0x4136ab) 

-- PC: (0x4136ab) 

-- PC: (0x4136ad) 

-- PC: (0x4136ad) 

-- PC: (0x4136ad) 

-- PC: (0x4136ad) 

-- PC: (0x4136ad) 

-- PC: (0x4136ad) 

-- PC: (0x4136ad) 

-- PC: (0x4136ad) 

-- PC: (0x4136ad) 

-- PC: (0x4136ad) 

-- PC: (0x4136ad) 

-- PC: (0x4136ad) 

-- PC: (0x4136ad) 

-- PC: (0x4136ad) 

-- PC: (0x4136ad) 

-- PC: (0x414851) 

-- PC: (0x4136ad) 

-- PC: (0x414851) 

-- PC: (0x414851) 

-- PC: (0x414851) 

-- PC: (0x414851) 

-- PC: (0x414851) 

-- ReadReq [14840:1487f] IF Hit -- Blk -> state: 7 (E) valid: 1 writable: 1 readable: 1 dirty: 0 | tag: 0x52 set: 0x1 way: 0 Latency: 2 

-- PC: (0x41368b) 

-- PC: (0x41368b) 

-- PC: (0x414851) 

-- PC: (0x414851) 

-- PC: (0x414851) 

-- PC: (0x414851) 

-- PC: (0x414851) 

-- PC: (0x414854) 

-- PC: (0x414854) 

-- PC: (0x414854) 

-- PC: (0x414854) 

-- PC: (0x414854) 

-- PC: (0x414854) 

-- PC: (0x414854) 

-- PC: (0x414854) 

-- PC: (0x414854) 

-- PC: (0x414854) 

-- PC: (0x41485b) 

-- PC: (0x41485b) 

-- PC: (0x41485b) 

-- PC: (0x41485b) 

-- PC: (0x41485b) 

-- PC: (0x41485b) 

-- PC: (0x41485e) 

-- PC: (0x41485e) 

-- PC: (0x41485e) 

-- PC: (0x41485e) 

-- PC: (0x41485e) 

-- PC: (0x41485e) 

-- PC: (0x41485e) 

-- PC: (0x41485e) 

-- PC: (0x41485e) 

-- PC: (0x41485e) 

-- PC: (0x41485e) 

-- PC: (0x41485e) 

-- PC: (0x414860) 

-- PC: (0x41485e) 

-- PC: (0x414860) 

-- PC: (0x41485e) 

-- PC: (0x414860) 

-- PC: (0x414860) 

-- PC: (0x414860) 

-- PC: (0x414860) 

-- PC: (0x414860) 

-- PC: (0x414863) 

-- PC: (0x414863) 

-- PC: (0x414863) 

-- PC: (0x4136a7) 

-- PC: (0x4136a8) 

-- Tick (136409000) -- ISN: (89100) : L from (0x6b93f0) -- of Size = (8)-- PC: (0x41368b) 

 -- vaddr (0x6b93f0) -- paddr (0xb93f0) 

-- ReadReq [b93f0:b93f7] Miss --  Latency: 502 

-- PC: (0x414863) 

-- PC: (0x414863) 

-- PC: (0x414863) 

-- PC: (0x414863) 

-- PC: (0x414863) 

-- PC: (0x414863) 

-- PC: (0x414863) 

-- PC: (0x414863) 

-- PC: (0x414863) 

-- PC: (0x414863) 

-- PC: (0x414863) 

-- PC: (0x414863) 

-- PC: (0x414865) 

-- PC: (0x414863) 

-- PC: (0x414865) 

-- PC: (0x414863) 

-- PC: (0x414865) 

-- PC: (0x414865) 

-- PC: (0x414865) 

-- PC: (0x414865) 

-- PC: (0x414865) 

-- PC: (0x414865) 

-- PC: (0x414865) 

-- PC: (0x414865) 

-- PC: (0x41486b) 

-- PC: (0x41486b) 

-- PC: (0x41486b) 

-- PC: (0x41486b) 

-- PC: (0x41486b) 

-- PC: (0x41486b) 

-- PC: (0x41486f) 

-- PC: (0x41486f) 

-- PC: (0x41486f) 

-- PC: (0x41486f) 

-- PC: (0x41486f) 

-- PC: (0x41486f) 

-- PC: (0x41486f) 

-- PC: (0x41486f) 

-- PC: (0x414871) 

-- PC: (0x414871) 

-- PC: (0x414871) 

-- PC: (0x414871) 

-- PC: (0x414871) 

-- PC: (0x414871) 

-- PC: (0x414875) 

-- PC: (0x414875) 

-- PC: (0x414875) 

-- PC: (0x414875) 

-- PC: (0x414875) 

-- PC: (0x414875) 

-- PC: (0x414875) 

-- PC: (0x414875) 

-- PC: (0x414879) 

-- PC: (0x414879) 

-- PC: (0x414879) 

-- PC: (0x4136a9) 

-- PC: (0x4136ab) 

-- PC: (0x4136ad) 

-- PC: (0x4136b0) 

-- PC: (0x4136b0) 

-- PC: (0x4136b3) 

-- PC: (0x4136b3) 

-- PC: (0x414879) 

-- PC: (0x414879) 

-- PC: (0x414879) 

-- PC: (0x414879) 

-- PC: (0x414879) 

-- PC: (0x414879) 

-- PC: (0x41487d) 

-- PC: (0x41487d) 

-- PC: (0x41487d) 

-- PC: (0x41487d) 

-- PC: (0x41487d) 

-- PC: (0x41487d) 

-- PC: (0x41487d) 

-- PC: (0x41487d) 

-- PC: (0x41487d) 

-- ReadReq [14880:148bf] IF Miss --  Latency: 502 

-- PC: (0x4136a7) 

-- PC: (0x4136b3) 

-- PC: (0x4136b3) 

-- PC: (0x4136b6) 

-- PC: (0x4136b6) 

-- PC: (0x4136b6) 

-- PC: (0x4136b6) 

-- PC: (0x4136b6) 

-- PC: (0x4136b6) 

-- PC: (0x4136b6) 

-- PC: (0x4136b6) 

-- PC: (0x41368b) 

-- PC: (0x41368b) 

-- Tick (136410500) -- ISN: (89107) : L from (0x7fffffffec08) -- of Size = (8)-- PC: (0x4136a7) 

 -- vaddr (0x7fffffffec08) -- paddr (0xc5c08) 

-- ReadReq [c5c08:c5c0f] Hit -- Blk -> state: f (M) valid: 1 writable: 1 readable: 1 dirty: 1 | tag: 0x317 set: 0 way: 0 Latency: 2 

-- PC: (0x4136a8) 

-- PC: (0x414854) 

-- Tick (136411000) -- ISN: (89110) : L from (0x7fffffffec10) -- of Size = (8)-- PC: (0x4136a8) 

 -- vaddr (0x7fffffffec10) -- paddr (0xc5c10) 

-- ReadReq [c5c10:c5c17] Hit -- Blk -> state: f (M) valid: 1 writable: 1 readable: 1 dirty: 1 | tag: 0x317 set: 0 way: 0 Latency: 2 

-- PC: (0x4136a9) 

-- PC: (0x414865) 

-- PC: (0x41486b) 

-- PC: (0x414871) 

-- PC: (0x414871) 

-- PC: (0x414875) 

-- PC: (0x414875) 

-- Tick (136411500) -- ISN: (89113) : L from (0x7fffffffec18) -- of Size = (8)-- PC: (0x4136a9) 

 -- vaddr (0x7fffffffec18) -- paddr (0xc5c18) 

-- ReadReq [c5c18:c5c1f] Hit -- Blk -> state: f (M) valid: 1 writable: 1 readable: 1 dirty: 1 | tag: 0x317 set: 0 way: 0 Latency: 2 

-- PC: (0x4136ab) 

-- PC: (0x414879) 

-- PC: (0x414879) 

-- Tick (136412000) -- ISN: (89116) : L from (0x7fffffffec20) -- of Size = (8)-- PC: (0x4136ab) 

 -- vaddr (0x7fffffffec20) -- paddr (0xc5c20) 

-- ReadReq [c5c20:c5c27] Hit -- Blk -> state: f (M) valid: 1 writable: 1 readable: 1 dirty: 1 | tag: 0x317 set: 0 way: 0 Latency: 2 

-- PC: (0x4136ad) 

-- PC: (0x414865) 

-- PC: (0x41486b) 

-- Tick (136412500) -- ISN: (89119) : L from (0x7fffffffec28) -- of Size = (8)-- PC: (0x4136ad) 

 -- vaddr (0x7fffffffec28) -- paddr (0xc5c28) 

-- ReadReq [c5c28:c5c2f] Hit -- Blk -> state: f (M) valid: 1 writable: 1 readable: 1 dirty: 1 | tag: 0x317 set: 0 way: 0 Latency: 2 

-- Tick (136412500) -- ISN: (89133) : L from (0x6b9420) -- of Size = (4)-- PC: (0x414865) 

 -- vaddr (0x6b9420) -- paddr (0xb9420) 

-- ReadReq [b9420:b9423] Miss --  Latency: 502 

-- Tick (136412500) -- ISN: (89134) : L from (0x6b9398) -- of Size = (8)-- PC: (0x41486b) 

 -- vaddr (0x6b9398) -- paddr (0xb9398) 

-- ReadReq [b9398:b939f] Hit -- Blk -> state: f (M) valid: 1 writable: 1 readable: 1 dirty: 1 | tag: 0x2e4 set: 0xe way: 0 Latency: 2 

-- PC: (0x414854) 

-- Tick (136414000) -- ISN: (89123) : L from (0x6b93e0) -- of Size = (2)-- PC: (0x414854) 

 -- vaddr (0x6b93e0) -- paddr (0xb93e0) 

-- ReadReq [b93e0:b93e1] Miss --  Latency: 502 

-- PC: (0x414871) 

-- PC: (0x414875) 

-- PC: (0x414879) 

-- Tick (136414500) -- ISN: (89136) : S -> (0x60) at (0x6b9378) -- Size = (8)-- PC: (0x414871) 

 -- vaddr (0x6b9378) -- paddr (0xb9378) 

-- Tick (136414500) -- ISN: (89137) : S -> (0x60) at (0x6b9368) -- Size = (8)-- PC: (0x414875) 

 -- vaddr (0x6b9368) -- paddr (0xb9368) 

-- Tick (136414500) -- ISN: (89138) : S -> (0x60) at (0x6b9370) -- Size = (8)-- PC: (0x414879) 

 -- vaddr (0x6b9370) -- paddr (0xb9370) 

-- PC: (0x41368b) 

-- PC: (0x41368b) 

-- PC: (0x413693) 

-- PC: (0x413693) 

-- PC: (0x413693) 

-- PC: (0x413693) 

-- PC: (0x413696) 

-- PC: (0x413696) 

-- PC: (0x413696) 

-- PC: (0x413696) 

-- PC: (0x413696) 

-- PC: (0x413696) 

-- PC: (0x413696) 

-- PC: (0x413696) 

-- PC: (0x4136a3) 

-- PC: (0x4136a3) 

-- PC: (0x4136a3) 

-- PC: (0x4136a3) 

-- PC: (0x4136a3) 

-- PC: (0x4136a3) 

-- PC: (0x4136a7) 

-- PC: (0x4136a7) 

-- PC: (0x4136a7) 

-- PC: (0x4136a7) 

-- PC: (0x4136a7) 

-- PC: (0x4136a7) 

-- PC: (0x4136a7) 

-- PC: (0x4136a7) 

-- PC: (0x4136a8) 

-- PC: (0x4136a8) 

-- PC: (0x4136a8) 

-- PC: (0x4136a8) 

-- PC: (0x4136a8) 

-- PC: (0x4136a8) 

-- PC: (0x4136a8) 

-- PC: (0x4136a8) 

-- PC: (0x4136a9) 

-- PC: (0x4136a9) 

-- PC: (0x4136a9) 

-- PC: (0x4136a9) 

-- PC: (0x4136a9) 

-- PC: (0x4136a9) 

-- PC: (0x4136a9) 

-- PC: (0x4136a9) 

-- PC: (0x4136ab) 

-- PC: (0x4136ab) 

-- PC: (0x4136ab) 

-- PC: (0x4136ab) 

-- PC: (0x4136ab) 

-- PC: (0x4136ab) 

-- PC: (0x4136ab) 

-- PC: (0x4136ab) 

-- PC: (0x4136ad) 

-- PC: (0x4136ad) 

-- PC: (0x4136ad) 

-- PC: (0x4136ad) 

-- PC: (0x4136ad) 

-- PC: (0x4136ad) 

-- PC: (0x4136ad) 

-- PC: (0x4136ad) 

-- PC: (0x414851) 

-- PC: (0x414851) 

-- PC: (0x414851) 

-- PC: (0x414851) 

-- PC: (0x414854) 

-- PC: (0x414854) 

-- PC: (0x41487d) 

-- PC: (0x41487d) 

-- PC: (0x41487d) 

-- PC: (0x41487d) 

-- PC: (0x414881) 

-- PC: (0x414881) 

-- PC: (0x414881) 

-- PC: (0x414881) 

-- PC: (0x414881) 

-- PC: (0x414881) 

-- PC: (0x414885) 

-- PC: (0x414885) 

-- PC: (0x414885) 

-- PC: (0x414885) 

-- PC: (0x414885) 

-- PC: (0x414885) 

-- PC: (0x414885) 

-- PC: (0x414885) 

-- PC: (0x414885) 

-- PC: (0x414885) 

-- PC: (0x414885) 

-- PC: (0x414885) 

-- PC: (0x4148c0) 

-- PC: (0x414885) 

-- PC: (0x4148c0) 

-- PC: (0x414885) 

-- PC: (0x4148c0) 

-- PC: (0x4148c0) 

-- PC: (0x4148c0) 

-- PC: (0x4148c0) 

-- PC: (0x4148c0) 

-- ReadReq [148c0:148ff] IF Miss --  Latency: 502 

-- PC: (0x414854) 

-- PC: (0x414854) 

-- PC: (0x414854) 

-- PC: (0x414854) 

-- PC: (0x41485b) 

-- PC: (0x41485b) 

-- PC: (0x41485b) 

-- PC: (0x41485b) 

-- PC: (0x41485e) 

-- PC: (0x41485e) 

-- PC: (0x41485e) 

-- PC: (0x41485e) 

-- PC: (0x41485e) 

-- PC: (0x41485e) 

-- PC: (0x41485e) 

-- PC: (0x41485e) 

-- PC: (0x414860) 

-- PC: (0x414860) 

-- PC: (0x414860) 

-- PC: (0x414860) 

-- PC: (0x414863) 

-- PC: (0x414863) 

-- PC: (0x414863) 

-- PC: (0x414863) 

-- PC: (0x414863) 

-- PC: (0x414863) 

-- PC: (0x414863) 

-- PC: (0x414863) 

-- PC: (0x414865) 

-- PC: (0x414865) 

-- PC: (0x41487d) 

-- PC: (0x41487d) 

-- PC: (0x414881) 

-- PC: (0x414881) 

-- PC: (0x41487d) 

-- PC: (0x414881) 

-- Tick (136468500) -- ISN: (89139) : S -> (0x60) at (0x6b9388) -- Size = (8)-- PC: (0x41487d) 

 -- vaddr (0x6b9388) -- paddr (0xb9388) 

-- Tick (136468500) -- ISN: (89140) : S -> (0x60) at (0x6b9380) -- Size = (8)-- PC: (0x414881) 

 -- vaddr (0x6b9380) -- paddr (0xb9380) 

-- PC: (0x414865) 

-- PC: (0x414865) 

-- PC: (0x41486b) 

-- PC: (0x41486b) 

-- PC: (0x41486b) 

-- PC: (0x41486b) 

-- PC: (0x41486f) 

-- PC: (0x41486f) 

-- PC: (0x41486f) 

-- PC: (0x41486f) 

-- PC: (0x414871) 

-- PC: (0x414871) 

-- PC: (0x414871) 

-- PC: (0x414871) 

-- PC: (0x414875) 

-- PC: (0x414875) 

-- PC: (0x414875) 

-- PC: (0x414875) 

-- PC: (0x414879) 

-- PC: (0x414879) 

-- PC: (0x414879) 

-- PC: (0x414879) 

-- PC: (0x41487d) 

-- PC: (0x41487d) 

-- PC: (0x41487d) 

-- PC: (0x41487d) 

-- PC: (0x414881) 

-- PC: (0x414881) 

-- PC: (0x414881) 

-- PC: (0x414881) 

-- PC: (0x414885) 

-- PC: (0x414885) 

-- PC: (0x414885) 

-- PC: (0x414885) 

-- PC: (0x414885) 

-- PC: (0x414885) 

-- PC: (0x414885) 

-- PC: (0x414885) 

-- PC: (0x4148c0) 

-- PC: (0x4148c0) 

-- WriteReq [b9378:b937f] Hit -- Blk -> state: f (M) valid: 1 writable: 1 readable: 1 dirty: 1 | tag: 0x2e4 set: 0xd way: 0 Latency: 2 

-- WriteReq [b9368:b936f] Hit -- Blk -> state: f (M) valid: 1 writable: 1 readable: 1 dirty: 1 | tag: 0x2e4 set: 0xd way: 0 Latency: 2 

-- WriteReq [b9370:b9377] Hit -- Blk -> state: f (M) valid: 1 writable: 1 readable: 1 dirty: 1 | tag: 0x2e4 set: 0xd way: 0 Latency: 2 

-- WriteReq [b9388:b938f] Hit -- Blk -> state: f (M) valid: 1 writable: 1 readable: 1 dirty: 1 | tag: 0x2e4 set: 0xe way: 0 Latency: 2 

-- WriteReq [b9380:b9387] Hit -- Blk -> state: f (M) valid: 1 writable: 1 readable: 1 dirty: 1 | tag: 0x2e4 set: 0xe way: 0 Latency: 2 

-- PC: (0x4148c0) 

-- PC: (0x4148c0) 

-- PC: (0x4148c0) 

-- PC: (0x4148c0) 

-- PC: (0x4148c0) 

-- PC: (0x4148c0) 

-- PC: (0x4148c0) 

-- PC: (0x4148c0) 

-- PC: (0x4148c6) 

-- PC: (0x4148c6) 

-- PC: (0x4148c6) 

-- PC: (0x4148c6) 

-- PC: (0x4148c6) 

-- PC: (0x4148c6) 

-- PC: (0x4148c6) 

-- PC: (0x4148c6) 

-- PC: (0x4148c6) 

-- PC: (0x4148c6) 

-- PC: (0x4148c6) 

-- PC: (0x4148c6) 

-- PC: (0x41488b) 

-- PC: (0x4148c6) 

-- PC: (0x41488b) 

-- PC: (0x4148c6) 

-- PC: (0x41488b) 

-- PC: (0x41488b) 

-- PC: (0x41488b) 

-- PC: (0x41488b) 

-- PC: (0x41488b) 

-- ReadReq [14880:148bf] IF Hit -- Blk -> state: 7 (E) valid: 1 writable: 1 readable: 1 dirty: 0 | tag: 0x52 set: 0x2 way: 0 Latency: 2 

-- PC: (0x41488b) 

-- PC: (0x41488b) 

-- PC: (0x41488b) 

-- PC: (0x41488b) 

-- PC: (0x41488b) 

-- PC: (0x41488f) 

-- PC: (0x41488f) 

-- PC: (0x41488f) 

-- PC: (0x41488f) 

-- PC: (0x41488f) 

-- PC: (0x41488f) 

-- PC: (0x41488f) 

-- PC: (0x41488f) 

-- PC: (0x414891) 

-- PC: (0x414891) 

-- PC: (0x414891) 

-- PC: (0x414891) 

-- PC: (0x414891) 

-- PC: (0x414891) 

-- PC: (0x414894) 

-- PC: (0x414894) 

-- PC: (0x414894) 

-- PC: (0x414894) 

-- PC: (0x414894) 

-- PC: (0x414894) 

-- PC: (0x414894) 

-- PC: (0x414894) 

-- PC: (0x414897) 

-- PC: (0x414897) 

-- PC: (0x414897) 

-- PC: (0x414897) 

-- PC: (0x414897) 

-- PC: (0x414897) 

-- PC: (0x414897) 

-- PC: (0x414897) 

-- PC: (0x414899) 

-- PC: (0x414899) 

-- PC: (0x414899) 

-- PC: (0x414899) 

-- PC: (0x414899) 

-- PC: (0x414899) 

-- PC: (0x414899) 

-- PC: (0x414899) 

-- PC: (0x41489d) 

-- PC: (0x41489d) 

-- PC: (0x41489d) 

-- PC: (0x41489d) 

-- PC: (0x41489d) 

-- PC: (0x41489d) 

-- PC: (0x41489d) 

-- PC: (0x41489d) 

-- PC: (0x41489d) 

-- PC: (0x41489d) 

-- PC: (0x41489d) 

-- PC: (0x41489d) 

-- PC: (0x41489d) 

-- PC: (0x41489e) 

-- PC: (0x41489e) 

-- PC: (0x41489e) 

-- PC: (0x41489e) 

-- PC: (0x41489e) 

-- PC: (0x41489e) 

-- PC: (0x41489e) 

-- PC: (0x41489e) 

-- PC: (0x41489e) 

-- PC: (0x41489e) 

-- PC: (0x41489f) 

-- PC: (0x41489f) 

-- PC: (0x41489f) 

-- PC: (0x41489f) 

-- PC: (0x41489f) 

-- PC: (0x41489f) 

-- PC: (0x41489f) 

-- PC: (0x41489f) 

-- PC: (0x41489f) 

-- PC: (0x41489f) 

-- PC: (0x41489f) 

-- PC: (0x41489f) 

-- PC: (0x41489f) 

-- PC: (0x41489f) 

-- PC: (0x41489f) 

-- PC: (0x41489f) 

-- PC: (0x4148a1) 

-- PC: (0x4148a1) 

-- PC: (0x4148a1) 

-- PC: (0x4148a1) 

-- PC: (0x4148a1) 

-- PC: (0x4148a1) 

-- PC: (0x4148a1) 

-- PC: (0x4148a1) 

-- PC: (0x4148a1) 

-- PC: (0x4148a1) 

-- PC: (0x4148a3) 

-- PC: (0x4148a3) 

-- PC: (0x4148a3) 

-- PC: (0x4148a3) 

-- PC: (0x4148a3) 

-- PC: (0x4148a3) 

-- PC: (0x4148a3) 

-- PC: (0x4148a3) 

-- PC: (0x4148a3) 

-- PC: (0x4148a3) 

-- PC: (0x4148a5) 

-- PC: (0x4148a5) 

-- PC: (0x4148a5) 

-- PC: (0x4148a5) 

-- PC: (0x4148a5) 

-- PC: (0x4148a5) 

-- PC: (0x4148a5) 

-- PC: (0x4148a5) 

-- PC: (0x4148c0) 

-- PC: (0x4148c0) 

-- PC: (0x4148a5) 

-- PC: (0x4148a5) 

-- PC: (0x4148a5) 

-- PC: (0x4148a5) 

-- PC: (0x4148a5) 

-- PC: (0x4148a5) 

-- PC: (0x4148a7) 

-- PC: (0x4148a7) 

-- PC: (0x4148a7) 

-- PC: (0x4148a7) 

-- PC: (0x4148a7) 

-- PC: (0x4148a7) 

-- PC: (0x4148a7) 

-- PC: (0x4148a7) 

-- PC: (0x4148a7) 

-- PC: (0x4148a7) 

-- PC: (0x4148a7) 

-- PC: (0x413e7d) 

-- PC: (0x4148a7) 

-- PC: (0x413e7d) 

-- PC: (0x413e7d) 

-- PC: (0x413e7d) 

-- PC: (0x413e7d) 

-- PC: (0x413e7d) 

-- ReadReq [13e40:13e7f] IF Miss --  Latency: 502 

-- Tick (136523500) -- ISN: (89144) : L from (0x6b9360) -- of Size = (4)-- PC: (0x4148c0) 

 -- vaddr (0x6b9360) -- paddr (0xb9360) 

-- ReadReq [b9360:b9363] Hit -- Blk -> state: f (M) valid: 1 writable: 1 readable: 1 dirty: 1 | tag: 0x2e4 set: 0xd way: 0 Latency: 2 

-- PC: (0x41488b) 

-- PC: (0x41488b) 

-- PC: (0x41488b) 

-- PC: (0x41489d) 

-- PC: (0x41489e) 

-- PC: (0x41489f) 

-- Tick (136524500) -- ISN: (89150) : S -> (0x60) at (0x6b9390) -- Size = (8)-- PC: (0x41488b) 

 -- vaddr (0x6b9390) -- paddr (0xb9390) 

-- PC: (0x4148a1) 

-- PC: (0x4148a3) 

-- PC: (0x4148a5) 

-- PC: (0x41489d) 

-- PC: (0x4148a7) 

-- Tick (136525500) -- ISN: (89158) : L from (0x7fffffffec38) -- of Size = (8)-- PC: (0x41489d) 

 -- vaddr (0x7fffffffec38) -- paddr (0xc5c38) 

-- ReadReq [c5c38:c5c3f] Miss --  Latency: 502 

-- PC: (0x41489e) 

-- PC: (0x4148c0) 

-- PC: (0x4148c0) 

-- PC: (0x4148c0) 

-- PC: (0x4148c0) 

-- Tick (136526000) -- ISN: (89161) : L from (0x7fffffffec40) -- of Size = (8)-- PC: (0x41489e) 

 -- vaddr (0x7fffffffec40) -- paddr (0xc5c40) 

-- ReadReq [c5c40:c5c47] Miss --  Latency: 502 

-- PC: (0x41489f) 

-- PC: (0x4148c0) 

-- PC: (0x4148c0) 

-- PC: (0x4148c6) 

-- PC: (0x4148c6) 

-- PC: (0x4148c6) 

-- PC: (0x4148c6) 

-- PC: (0x4148c6) 

-- PC: (0x4148c6) 

-- Tick (136526500) -- ISN: (89164) : L from (0x7fffffffec48) -- of Size = (8)-- PC: (0x41489f) 

 -- vaddr (0x7fffffffec48) -- paddr (0xc5c48) 

-- ReadReq [c5c48:c5c4f] Miss --  Latency: 502 

-- PC: (0x4148a1) 

-- PC: (0x4148c6) 

-- PC: (0x4148c6) 

-- PC: (0x41488b) 

-- PC: (0x41488b) 

-- PC: (0x41488b) 

-- PC: (0x41488b) 

-- PC: (0x41488f) 

-- PC: (0x41488f) 

-- PC: (0x41488f) 

-- PC: (0x41488f) 

-- PC: (0x414891) 

-- PC: (0x414891) 

-- PC: (0x414891) 

-- PC: (0x414891) 

-- PC: (0x414894) 

-- PC: (0x414894) 

-- Tick (136527000) -- ISN: (89167) : L from (0x7fffffffec50) -- of Size = (8)-- PC: (0x4148a1) 

 -- vaddr (0x7fffffffec50) -- paddr (0xc5c50) 

-- ReadReq [c5c50:c5c57] Miss --  Latency: 502 

-- PC: (0x4148a3) 

-- PC: (0x414894) 

-- PC: (0x414894) 

-- Tick (136527500) -- ISN: (89170) : L from (0x7fffffffec58) -- of Size = (8)-- PC: (0x4148a3) 

 -- vaddr (0x7fffffffec58) -- paddr (0xc5c58) 

-- ReadReq [c5c58:c5c5f] Miss --  Latency: 502 

-- PC: (0x4148a5) 

-- WriteReq [b9390:b9397] Hit -- Blk -> state: f (M) valid: 1 writable: 1 readable: 1 dirty: 1 | tag: 0x2e4 set: 0xe way: 0 Latency: 2 

-- PC: (0x414894) 

-- PC: (0x414894) 

-- PC: (0x414897) 

-- PC: (0x414897) 

-- Tick (136528000) -- ISN: (89173) : L from (0x7fffffffec60) -- of Size = (8)-- PC: (0x4148a5) 

 -- vaddr (0x7fffffffec60) -- paddr (0xc5c60) 

-- ReadReq [c5c60:c5c67] Miss --  Latency: 502 

-- PC: (0x4148a7) 

-- PC: (0x414897) 

-- PC: (0x414897) 

-- PC: (0x414899) 

-- PC: (0x414899) 

-- PC: (0x414899) 

-- PC: (0x414899) 

-- PC: (0x414899) 

-- PC: (0x414899) 

-- PC: (0x41489d) 

-- PC: (0x41489d) 

-- Tick (136528500) -- ISN: (89176) : L from (0x7fffffffec68) -- of Size = (8)-- PC: (0x4148a7) 

 -- vaddr (0x7fffffffec68) -- paddr (0xc5c68) 

-- ReadReq [c5c68:c5c6f] Miss --  Latency: 502 

-- PC: (0x413e7d) 

-- PC: (0x413e7d) 

-- PC: (0x413e7d) 

-- PC: (0x413e7d) 

-- PC: (0x413e7d) 

-- PC: (0x413e7d) 

-- PC: (0x413e7d) 

-- PC: (0x413e80) 

-- PC: (0x413e80) 

-- PC: (0x413e80) 

-- PC: (0x413e80) 

-- PC: (0x413e80) 

-- PC: (0x413e80) 

-- ReadReq [13e80:13ebf] IF Miss --  Latency: 502 

-- PC: (0x41489d) 

-- PC: (0x41489d) 

-- PC: (0x41489d) 

-- PC: (0x41489d) 

-- PC: (0x41489d) 

-- PC: (0x41489d) 

-- PC: (0x41489e) 

-- PC: (0x41489e) 

-- PC: (0x41489e) 

-- PC: (0x41489e) 

-- PC: (0x41489e) 

-- PC: (0x41489e) 

-- PC: (0x41489e) 

-- PC: (0x41489e) 

-- PC: (0x41489f) 

-- PC: (0x41489f) 

-- PC: (0x41489f) 

-- PC: (0x41489f) 

-- PC: (0x41489f) 

-- PC: (0x41489f) 

-- PC: (0x41489f) 

-- PC: (0x41489f) 

-- PC: (0x4148a1) 

-- PC: (0x4148a1) 

-- PC: (0x4148a1) 

-- PC: (0x4148a1) 

-- PC: (0x4148a1) 

-- PC: (0x4148a1) 

-- PC: (0x4148a1) 

-- PC: (0x4148a1) 

-- PC: (0x4148a3) 

-- PC: (0x4148a3) 

-- PC: (0x4148a3) 

-- PC: (0x4148a3) 

-- PC: (0x4148a3) 

-- PC: (0x4148a3) 

-- PC: (0x4148a3) 

-- PC: (0x4148a3) 

-- PC: (0x4148a5) 

-- PC: (0x4148a5) 

-- PC: (0x4148a5) 

-- PC: (0x4148a5) 

-- PC: (0x4148a5) 

-- PC: (0x4148a5) 

-- PC: (0x4148a5) 

-- PC: (0x4148a5) 

-- PC: (0x4148a7) 

-- PC: (0x4148a7) 

-- PC: (0x4148a7) 

-- PC: (0x4148a7) 

-- PC: (0x4148a7) 

-- PC: (0x4148a7) 

-- PC: (0x4148a7) 

-- PC: (0x4148a7) 

-- PC: (0x413e7d) 

-- PC: (0x413e7d) 

-- PC: (0x413e7d) 

-- PC: (0x413e7d) 

-- PC: (0x413e7d) 

-- PC: (0x413e7d) 

-- PC: (0x413e80) 

-- PC: (0x413e80) 

-- PC: (0x413e80) 

-- PC: (0x413e80) 

-- PC: (0x413e80) 

-- PC: (0x413e80) 

-- PC: (0x413e80) 

-- PC: (0x413e80) 

-- PC: (0x413e80) 

-- PC: (0x413e80) 

-- PC: (0x413e80) 

-- PC: (0x413e80) 

-- PC: (0x413e86) 

-- PC: (0x413e80) 

-- PC: (0x413e86) 

-- PC: (0x413e80) 

-- PC: (0x413e86) 

-- PC: (0x413e86) 

-- PC: (0x413e86) 

-- PC: (0x413e86) 

-- PC: (0x413e86) 

-- PC: (0x413e86) 

-- PC: (0x413e86) 

-- PC: (0x413e86) 

-- PC: (0x413e8a) 

-- PC: (0x413e8a) 

-- PC: (0x413e8a) 

-- PC: (0x413e8a) 

-- PC: (0x413e8a) 

-- PC: (0x413e8a) 

-- PC: (0x413e8a) 

-- PC: (0x413e8a) 

-- PC: (0x413e8e) 

-- PC: (0x413e8e) 

-- PC: (0x413e8e) 

-- PC: (0x413e8e) 

-- PC: (0x413e8e) 

-- PC: (0x413e8e) 

-- PC: (0x413e8e) 

-- PC: (0x413e8e) 

-- PC: (0x413e91) 

-- PC: (0x413e91) 

-- PC: (0x413e91) 

-- PC: (0x413e91) 

-- PC: (0x413e91) 

-- PC: (0x413e91) 

-- PC: (0x413e91) 

-- PC: (0x413e91) 

-- PC: (0x413e91) 

-- PC: (0x413e91) 

-- PC: (0x413e91) 

-- PC: (0x413e91) 

-- PC: (0x413e95) 

-- PC: (0x413e95) 

-- PC: (0x413e95) 

-- PC: (0x413e95) 

-- PC: (0x413e95) 

-- PC: (0x413e95) 

-- PC: (0x413e95) 

-- PC: (0x413e95) 

-- PC: (0x413e95) 

-- PC: (0x413e95) 

-- PC: (0x413e95) 

-- PC: (0x413e95) 

-- PC: (0x413e97) 

-- PC: (0x413e95) 

-- PC: (0x413e97) 

-- PC: (0x413e95) 

-- PC: (0x413e97) 

-- PC: (0x413e97) 

-- PC: (0x413e97) 

-- PC: (0x413e97) 

-- PC: (0x413e97) 

-- PC: (0x413e97) 

-- PC: (0x413e97) 

-- PC: (0x413e97) 

-- PC: (0x413e9a) 

-- PC: (0x413e9a) 

-- PC: (0x413e9a) 

-- PC: (0x413e9a) 

-- PC: (0x413e9a) 

-- PC: (0x413e9a) 

-- PC: (0x413e9c) 

-- PC: (0x413e9c) 

-- PC: (0x413e9c) 

-- PC: (0x413e9c) 

-- PC: (0x413e9c) 

-- PC: (0x413e9c) 

-- PC: (0x413e9c) 

-- PC: (0x413e9c) 

-- PC: (0x413e9c) 

-- PC: (0x413e9c) 

-- PC: (0x413e9c) 

-- PC: (0x413e9c) 

-- PC: (0x413e9c) 

-- PC: (0x413e9c) 

-- PC: (0x413e9c) 

-- PC: (0x413e9c) 

-- PC: (0x413e9c) 

-- PC: (0x413e9c) 

-- PC: (0x413e9c) 

-- PC: (0x413e9c) 

-- PC: (0x413e9c) 

-- PC: (0x413e9c) 

-- PC: (0x413e9c) 

-- PC: (0x413e9c) 

-- PC: (0x413e9c) 

-- PC: (0x413e9c) 

-- PC: (0x413e9c) 

-- PC: (0x413e9c) 

-- PC: (0x413e9c) 

-- PC: (0x413e9c) 

-- PC: (0x413e9c) 

-- PC: (0x413e9c) 

-- PC: (0x413e9c) 

-- PC: (0x413e9c) 

-- PC: (0x413e9f) 

-- PC: (0x413e9f) 

-- PC: (0x413e9f) 

-- PC: (0x413e9f) 

-- PC: (0x413e9f) 

-- PC: (0x413e9f) 

-- PC: (0x413e9f) 

-- PC: (0x413e9f) 

-- PC: (0x413e9f) 

-- PC: (0x413e9f) 

-- PC: (0x413e9f) 

-- PC: (0x413ea2) 

-- PC: (0x413ea2) 

-- PC: (0x413ea2) 

-- PC: (0x413ea2) 

-- PC: (0x413ea2) 

-- PC: (0x413ea2) 

-- PC: (0x413ea5) 

-- PC: (0x413ea5) 

-- PC: (0x413ea5) 

-- PC: (0x413ea5) 

-- PC: (0x413ea5) 

-- PC: (0x413ea5) 

-- PC: (0x413ea5) 

-- PC: (0x413ea5) 

-- PC: (0x413ea5) 

-- PC: (0x413ea5) 

-- PC: (0x413ea5) 

-- PC: (0x413ea5) 

-- PC: (0x413ea5) 

-- PC: (0x413ea5) 

-- PC: (0x413eab) 

-- PC: (0x413ea5) 

-- PC: (0x413eab) 

-- PC: (0x413ea5) 

-- PC: (0x413eab) 

-- PC: (0x413eab) 

-- PC: (0x413eab) 

-- PC: (0x413eab) 

-- PC: (0x413eab) 

-- PC: (0x413eab) 

-- PC: (0x413eae) 

-- PC: (0x413eae) 

-- PC: (0x413eae) 

-- PC: (0x413eae) 

-- PC: (0x413eae) 

-- PC: (0x413eae) 

-- PC: (0x413eae) 

-- PC: (0x413eae) 

-- PC: (0x413eb1) 

-- PC: (0x413eb1) 

-- PC: (0x413eb1) 

-- PC: (0x413eb1) 

-- PC: (0x413eb1) 

-- PC: (0x413eb1) 

-- PC: (0x413eb1) 

-- PC: (0x413eb1) 

-- PC: (0x413eb1) 

-- PC: (0x413eb1) 

-- PC: (0x413eb1) 

-- PC: (0x413eb1) 

-- PC: (0x413eb1) 

-- PC: (0x413eb1) 

-- PC: (0x413eb1) 

-- PC: (0x413eb1) 

-- PC: (0x413eb3) 

-- PC: (0x413eb1) 

-- PC: (0x413eb3) 

-- PC: (0x413eb1) 

-- PC: (0x413eb3) 

-- PC: (0x413eb3) 

-- PC: (0x413eb3) 

-- PC: (0x413eb3) 

-- PC: (0x413eb3) 

-- PC: (0x413eb3) 

-- PC: (0x413eb8) 

-- PC: (0x413eb8) 

-- PC: (0x413eb8) 

-- PC: (0x413eb8) 

-- PC: (0x413eb8) 

-- PC: (0x413ebb) 

-- PC: (0x413ebb) 

-- PC: (0x413ebb) 

-- PC: (0x413ebb) 

-- PC: (0x413ebb) 

-- PC: (0x413ebb) 

-- PC: (0x413ebe) 

-- PC: (0x413ebe) 

-- PC: (0x413ebe) 

-- PC: (0x413ebe) 

-- PC: (0x413ebe) 

-- PC: (0x413ebe) 

-- PC: (0x413ebe) 

-- PC: (0x413ebe) 

-- PC: (0x413ebe) 

-- ReadReq [13ec0:13eff] IF Hit -- Blk -> state: 7 (E) valid: 1 writable: 1 readable: 1 dirty: 0 | tag: 0x4f set: 0xb way: 0 Latency: 2 

-- PC: (0x413e86) 

-- PC: (0x413e8a) 

-- PC: (0x413e86) 

-- PC: (0x413e8a) 

-- Tick (136575500) -- ISN: (89184) : L from (0x6b93a0) -- of Size = (8)-- PC: (0x413e86) 

 -- vaddr (0x6b93a0) -- paddr (0xb93a0) 

-- ReadReq [b93a0:b93a7] Hit -- Blk -> state: f (M) valid: 1 writable: 1 readable: 1 dirty: 1 | tag: 0x2e4 set: 0xe way: 0 Latency: 2 

-- Tick (136575500) -- ISN: (89185) : L from (0x6b9398) -- of Size = (8)-- PC: (0x413e8a) 

 -- vaddr (0x6b9398) -- paddr (0xb9398) 

-- ReadReq [b9398:b939f] Hit -- Blk -> state: f (M) valid: 1 writable: 1 readable: 1 dirty: 1 | tag: 0x2e4 set: 0xe way: 0 Latency: 2 

-- PC: (0x413ebe) 

-- PC: (0x413ebe) 

-- PC: (0x413ebe) 

-- PC: (0x413ebe) 

-- PC: (0x413ebe) 

-- PC: (0x413ebe) 

-- PC: (0x413ebe) 

-- PC: (0x413ebe) 

-- PC: (0x413ebe) 

-- PC: (0x413ebe) 

-- PC: (0x413ebe) 

-- PC: (0x413ebe) 

-- PC: (0x413ebe) 

-- PC: (0x413ebe) 

-- PC: (0x416b90) 

-- PC: (0x413ebe) 

-- PC: (0x416b90) 

-- PC: (0x413ebe) 

-- PC: (0x416b90) 

-- PC: (0x416b90) 

-- PC: (0x416b90) 

-- PC: (0x416b90) 

-- PC: (0x416b90) 

-- ReadReq [16b80:16bbf] IF Miss --  Latency: 502 

-- PC: (0x413e80) 

-- PC: (0x413e80) 

-- PC: (0x413e80) 

-- PC: (0x413e80) 

-- PC: (0x413e80) 

-- PC: (0x413e80) 

-- PC: (0x413e86) 

-- PC: (0x413e86) 

-- PC: (0x413e86) 

-- PC: (0x413e86) 

-- PC: (0x413e8a) 

-- PC: (0x413e8a) 

-- PC: (0x413ebe) 

-- PC: (0x413ebe) 

-- PC: (0x413e8a) 

-- PC: (0x413e8a) 

-- PC: (0x413ebe) 

-- PC: (0x413e8a) 

-- PC: (0x413e8a) 

-- PC: (0x413e8e) 

-- PC: (0x413e8e) 

-- PC: (0x413e8e) 

-- PC: (0x413e8e) 

-- PC: (0x413e91) 

-- PC: (0x413e91) 

-- PC: (0x413e91) 

-- PC: (0x413e91) 

-- Tick (136579000) -- ISN: (89220) : S -> (0xc3) at (0x7fffffffec68) -- Size = (8)-- PC: (0x413ebe) 

 -- vaddr (0x7fffffffec68) -- paddr (0xc5c68) 

-- PC: (0x413e91) 

-- PC: (0x413e91) 

-- PC: (0x413e95) 

-- PC: (0x413e95) 

-- PC: (0x413e95) 

-- PC: (0x413e95) 

-- PC: (0x413e95) 

-- PC: (0x413e95) 

-- PC: (0x413e95) 

-- PC: (0x413e95) 

-- PC: (0x413e97) 

-- PC: (0x413e97) 

-- PC: (0x413e97) 

-- PC: (0x413e97) 

-- PC: (0x413e9a) 

-- PC: (0x413e9a) 

-- PC: (0x413e9a) 

-- PC: (0x413e9a) 

-- PC: (0x413e9c) 

-- PC: (0x413e9c) 

-- PC: (0x413e9c) 

-- PC: (0x413e9c) 

-- PC: (0x413e9c) 

-- PC: (0x413e9c) 

-- PC: (0x413e9c) 

-- PC: (0x413e9c) 

-- PC: (0x413e9c) 

-- PC: (0x413e9c) 

-- PC: (0x413e9c) 

-- PC: (0x413e9c) 

-- PC: (0x413e9c) 

-- PC: (0x413e9c) 

-- PC: (0x413e9c) 

-- PC: (0x413e9c) 

-- PC: (0x413e9c) 

-- PC: (0x413e9c) 

-- PC: (0x413e9c) 

-- PC: (0x413e9c) 

-- PC: (0x413e9c) 

-- PC: (0x413e9c) 

-- PC: (0x413e9f) 

-- PC: (0x413e9f) 

-- PC: (0x413e9f) 

-- PC: (0x413e9f) 

-- PC: (0x413ea2) 

-- PC: (0x413ea2) 

-- PC: (0x413ea2) 

-- PC: (0x413ea2) 

-- PC: (0x413ea5) 

-- PC: (0x413ea5) 

-- PC: (0x413ea5) 

-- PC: (0x413ea5) 

-- PC: (0x413ea5) 

-- PC: (0x413ea5) 

-- PC: (0x413eb1) 

-- PC: (0x413e33) 

-- PC: (0x413e33) 

-- PC: (0x413e33) 

-- PC: (0x413e33) 

-- Sqsh -> ISN (89214)

-- PC: (0x413ea5) 

-- PC: (0x413ea5) 

-- PC: (0x413eab) 

-- PC: (0x413eab) 

-- PC: (0x413eab) 

-- PC: (0x413eab) 

-- PC: (0x413eae) 

-- PC: (0x413eae) 

-- PC: (0x413eae) 

-- PC: (0x413eae) 

-- PC: (0x413eb1) 

-- PC: (0x413eb1) 

-- PC: (0x413eb1) 

-- PC: (0x413eb1) 

-- PC: (0x413eb1) 

-- PC: (0x413eb1) 

-- PC: (0x413eb1) 

-- PC: (0x413eb1) 

-- PC: (0x413e33) 

-- PC: (0x413e33) 

-- PC: (0x413e33) 

-- PC: (0x413e33) 

-- ReadReq [13e00:13e3f] IF Miss --  Latency: 502 

-- PC: (0x413e33) 

-- PC: (0x413e33) 

-- PC: (0x413e33) 

-- PC: (0x413e33) 

-- PC: (0x413e33) 

-- PC: (0x413e33) 

-- PC: (0x413e33) 

-- PC: (0x413e37) 

-- PC: (0x413e37) 

-- PC: (0x413e37) 

-- PC: (0x413e37) 

-- PC: (0x413e37) 

-- PC: (0x413e37) 

-- PC: (0x413e37) 

-- PC: (0x413e37) 

-- PC: (0x413e3a) 

-- PC: (0x413e3a) 

-- PC: (0x413e3a) 

-- PC: (0x413e3a) 

-- PC: (0x413e3a) 

-- PC: (0x413e3a) 

-- PC: (0x413e3a) 

-- PC: (0x413e3a) 

-- PC: (0x413e3a) 

-- PC: (0x413e3a) 

-- PC: (0x413e3b) 

-- PC: (0x413e3b) 

-- PC: (0x413e3b) 

-- PC: (0x413e3b) 

-- PC: (0x413e3b) 

-- PC: (0x413e3b) 

-- PC: (0x413e3b) 

-- PC: (0x413e3b) 

-- PC: (0x413e3b) 

-- PC: (0x413e3b) 

-- PC: (0x413e3b) 

-- PC: (0x413e3b) 

-- PC: (0x413e3b) 

-- PC: (0x413e3b) 

-- PC: (0x413e3c) 

-- PC: (0x413e3c) 

-- PC: (0x413e3c) 

-- PC: (0x413e3c) 

-- PC: (0x413e3c) 

-- PC: (0x413e3c) 

-- PC: (0x413e3c) 

-- PC: (0x413e3c) 

-- PC: (0x413e3c) 

-- PC: (0x413e3c) 

-- PC: (0x413e3e) 

-- PC: (0x413e3e) 

-- PC: (0x413e3e) 

-- PC: (0x413e3e) 

-- PC: (0x413e3e) 

-- PC: (0x413e3e) 

-- PC: (0x413e3e) 

-- PC: (0x413e3e) 

-- PC: (0x413e3e) 

-- PC: (0x413e3e) 

-- PC: (0x413e40) 

-- PC: (0x413e40) 

-- PC: (0x413e40) 

-- PC: (0x413e40) 

-- PC: (0x413e40) 

-- PC: (0x413e40) 

-- ReadReq [13e40:13e7f] IF Hit -- Blk -> state: 7 (E) valid: 1 writable: 1 readable: 1 dirty: 0 | tag: 0x4f set: 0x9 way: 0 Latency: 2 

-- PC: (0x413e40) 

-- PC: (0x413e40) 

-- PC: (0x413e40) 

-- PC: (0x413e40) 

-- PC: (0x413e40) 

-- PC: (0x413e40) 

-- PC: (0x413e40) 

-- PC: (0x413e40) 

-- PC: (0x413e42) 

-- PC: (0x413e42) 

-- PC: (0x413e42) 

-- PC: (0x413e42) 

-- PC: (0x413e42) 

-- PC: (0x413e42) 

-- PC: (0x413e42) 

-- PC: (0x413e42) 

-- PC: (0x413e42) 

-- PC: (0x413e42) 

-- PC: (0x413e44) 

-- PC: (0x413e44) 

-- PC: (0x413e44) 

-- PC: (0x413e44) 

-- PC: (0x413e44) 

-- PC: (0x413e44) 

-- PC: (0x413e44) 

-- PC: (0x413e44) 

-- PC: (0x413e44) 

-- PC: (0x413e44) 

-- PC: (0x413e44) 

-- PC: (0x413e44) 

-- PC: (0x413e44) 

-- PC: (0x413e44) 

-- PC: (0x413e44) 

-- PC: (0x41063f) 

-- PC: (0x413e44) 

-- PC: (0x41063f) 

-- PC: (0x41063f) 

-- PC: (0x41063f) 

-- PC: (0x41063f) 

-- PC: (0x41063f) 

-- ReadReq [10600:1063f] IF Miss --  Latency: 502 

-- PC: (0x413e3a) 

-- PC: (0x413e3b) 

-- PC: (0x413e3c) 

-- PC: (0x413e3e) 

-- PC: (0x413e3a) 

-- PC: (0x413e40) 

-- PC: (0x413e42) 

-- PC: (0x413e44) 

-- Tick (136611500) -- ISN: (89226) : L from (0x7fffffffec88) -- of Size = (8)-- PC: (0x413e3a) 

 -- vaddr (0x7fffffffec88) -- paddr (0xc5c88) 

-- ReadReq [c5c88:c5c8f] Hit -- Blk -> state: 7 (E) valid: 1 writable: 1 readable: 1 dirty: 0 | tag: 0x317 set: 0x2 way: 0 Latency: 2 

-- PC: (0x413e3b) 

-- PC: (0x413e33) 

-- PC: (0x413e33) 

-- Tick (136612000) -- ISN: (89229) : L from (0x7fffffffec90) -- of Size = (8)-- PC: (0x413e3b) 

 -- vaddr (0x7fffffffec90) -- paddr (0xc5c90) 

-- ReadReq [c5c90:c5c97] Hit -- Blk -> state: 7 (E) valid: 1 writable: 1 readable: 1 dirty: 0 | tag: 0x317 set: 0x2 way: 0 Latency: 2 

-- PC: (0x413e3c) 

-- PC: (0x413e33) 

-- PC: (0x413e33) 

-- PC: (0x413e37) 

-- PC: (0x413e37) 

-- PC: (0x413e37) 

-- PC: (0x413e37) 

-- PC: (0x413e3a) 

-- PC: (0x413e3a) 

-- Tick (136612500) -- ISN: (89232) : L from (0x7fffffffec98) -- of Size = (8)-- PC: (0x413e3c) 

 -- vaddr (0x7fffffffec98) -- paddr (0xc5c98) 

-- ReadReq [c5c98:c5c9f] Hit -- Blk -> state: 7 (E) valid: 1 writable: 1 readable: 1 dirty: 0 | tag: 0x317 set: 0x2 way: 0 Latency: 2 

-- PC: (0x413e3e) 

-- Tick (136613000) -- ISN: (89235) : L from (0x7fffffffeca0) -- of Size = (8)-- PC: (0x413e3e) 

 -- vaddr (0x7fffffffeca0) -- paddr (0xc5ca0) 

-- ReadReq [c5ca0:c5ca7] Hit -- Blk -> state: 7 (E) valid: 1 writable: 1 readable: 1 dirty: 0 | tag: 0x317 set: 0x2 way: 0 Latency: 2 

-- PC: (0x413e40) 

-- Tick (136613500) -- ISN: (89238) : L from (0x7fffffffeca8) -- of Size = (8)-- PC: (0x413e40) 

 -- vaddr (0x7fffffffeca8) -- paddr (0xc5ca8) 

-- ReadReq [c5ca8:c5caf] Hit -- Blk -> state: 7 (E) valid: 1 writable: 1 readable: 1 dirty: 0 | tag: 0x317 set: 0x2 way: 0 Latency: 2 

-- PC: (0x413e42) 

-- PC: (0x413e3a) 

-- PC: (0x413e3a) 

-- PC: (0x413e3a) 

-- PC: (0x413e3a) 

-- Tick (136614000) -- ISN: (89241) : L from (0x7fffffffecb0) -- of Size = (8)-- PC: (0x413e42) 

 -- vaddr (0x7fffffffecb0) -- paddr (0xc5cb0) 

-- ReadReq [c5cb0:c5cb7] Hit -- Blk -> state: 7 (E) valid: 1 writable: 1 readable: 1 dirty: 0 | tag: 0x317 set: 0x2 way: 0 Latency: 2 

-- PC: (0x413e44) 

-- PC: (0x413e3a) 

-- PC: (0x413e3a) 

-- PC: (0x413e3b) 

-- PC: (0x413e3b) 

-- PC: (0x413e3b) 

-- PC: (0x413e3b) 

-- PC: (0x413e3b) 

-- PC: (0x413e3b) 

-- Tick (136614500) -- ISN: (89244) : L from (0x7fffffffecb8) -- of Size = (8)-- PC: (0x413e44) 

 -- vaddr (0x7fffffffecb8) -- paddr (0xc5cb8) 

-- ReadReq [c5cb8:c5cbf] Hit -- Blk -> state: 7 (E) valid: 1 writable: 1 readable: 1 dirty: 0 | tag: 0x317 set: 0x2 way: 0 Latency: 2 

-- PC: (0x413e3b) 

-- PC: (0x413e3b) 

-- PC: (0x413e3c) 

-- PC: (0x413e3c) 

-- PC: (0x413e3c) 

-- PC: (0x413e3c) 

-- PC: (0x413e3c) 

-- PC: (0x413e3c) 

-- PC: (0x413e3c) 

-- PC: (0x413e3c) 

-- PC: (0x413e3e) 

-- PC: (0x413e3e) 

-- PC: (0x413e3e) 

-- PC: (0x413e3e) 

-- PC: (0x413e3e) 

-- PC: (0x413e3e) 

-- PC: (0x413e3e) 

-- PC: (0x413e3e) 

-- PC: (0x413e40) 

-- PC: (0x413e40) 

-- PC: (0x413e40) 

-- PC: (0x413e40) 

-- PC: (0x413e40) 

-- PC: (0x413e40) 

-- PC: (0x413e40) 

-- PC: (0x413e40) 

-- PC: (0x413e42) 

-- PC: (0x413e42) 

-- PC: (0x413e42) 

-- PC: (0x413e42) 

-- PC: (0x413e42) 

-- PC: (0x413e42) 

-- PC: (0x413e42) 

-- PC: (0x413e42) 

-- PC: (0x413e44) 

-- PC: (0x413e44) 

-- PC: (0x413e44) 

-- PC: (0x413e44) 

-- PC: (0x413e44) 

-- PC: (0x413e44) 

-- PC: (0x413e44) 

-- PC: (0x413e44) 

-- PC: (0x41063f) 

-- PC: (0x41063f) 

-- PC: (0x41063f) 

-- PC: (0x41063f) 

-- PC: (0x41063f) 

-- PC: (0x41063f) 

-- PC: (0x41063f) 

-- PC: (0x41063f) 

-- PC: (0x41063f) 

-- PC: (0x41063f) 

-- ReadReq [10640:1067f] IF Miss --  Latency: 502 

-- PC: (0x41063f) 

-- PC: (0x41063f) 

-- PC: (0x41063f) 

-- PC: (0x41063f) 

-- PC: (0x410642) 

-- PC: (0x410642) 

-- PC: (0x410642) 

-- PC: (0x410642) 

-- PC: (0x410642) 

-- PC: (0x410642) 

-- PC: (0x410642) 

-- PC: (0x410642) 

-- PC: (0x410642) 

-- PC: (0x410642) 

-- PC: (0x410642) 

-- PC: (0x410642) 

-- PC: (0x410648) 

-- PC: (0x410642) 

-- PC: (0x410648) 

-- PC: (0x410642) 

-- PC: (0x410648) 

-- PC: (0x410648) 

-- PC: (0x410648) 

-- PC: (0x410648) 

-- PC: (0x410648) 

-- PC: (0x410648) 

-- PC: (0x410648) 

-- PC: (0x41064f) 

-- PC: (0x41064f) 

-- PC: (0x41064f) 

-- PC: (0x41064f) 

-- PC: (0x41064f) 

-- PC: (0x41064f) 

-- PC: (0x41064f) 

-- PC: (0x41064f) 

-- PC: (0x410653) 

-- PC: (0x410653) 

-- PC: (0x410653) 

-- PC: (0x410653) 

-- PC: (0x410653) 

-- PC: (0x410653) 

-- PC: (0x410653) 

-- PC: (0x410653) 

-- PC: (0x410653) 

-- PC: (0x410653) 

-- PC: (0x410653) 

-- PC: (0x410653) 

-- PC: (0x410657) 

-- PC: (0x410657) 

-- PC: (0x410657) 

-- PC: (0x410657) 

-- PC: (0x410657) 

-- PC: (0x410657) 

-- PC: (0x410657) 

-- PC: (0x410657) 

-- PC: (0x410657) 

-- PC: (0x410657) 

-- PC: (0x410657) 

-- PC: (0x410657) 

-- PC: (0x410657) 

-- PC: (0x410657) 

-- PC: (0x41065d) 

-- PC: (0x410657) 

-- PC: (0x41065d) 

-- PC: (0x410657) 

-- PC: (0x41065d) 

-- PC: (0x41065d) 

-- PC: (0x41065d) 

-- PC: (0x41065d) 

-- PC: (0x41065d) 

-- PC: (0x41065d) 

-- PC: (0x41065d) 

-- PC: (0x41065d) 

-- PC: (0x410661) 

-- PC: (0x410661) 

-- PC: (0x410661) 

-- PC: (0x410661) 

-- PC: (0x410661) 

-- PC: (0x410661) 

-- PC: (0x410665) 

-- PC: (0x410665) 

-- PC: (0x410665) 

-- PC: (0x410665) 

-- PC: (0x410665) 

-- PC: (0x410665) 

-- PC: (0x410665) 

-- PC: (0x410665) 

-- PC: (0x410668) 

-- PC: (0x410668) 

-- PC: (0x410668) 

-- PC: (0x410668) 

-- PC: (0x410668) 

-- PC: (0x410668) 

-- PC: (0x410668) 

-- PC: (0x410668) 

-- PC: (0x410668) 

-- PC: (0x410668) 

-- PC: (0x41066c) 

-- PC: (0x41066c) 

-- PC: (0x41066c) 

-- PC: (0x41066c) 

-- PC: (0x41066c) 

-- PC: (0x41066c) 

-- PC: (0x41066c) 

-- PC: (0x41066c) 

-- PC: (0x410671) 

-- PC: (0x410671) 

-- PC: (0x410671) 

-- PC: (0x410671) 

-- PC: (0x410671) 

-- PC: (0x410671) 

-- PC: (0x410671) 

-- PC: (0x410671) 

-- PC: (0x410678) 

-- PC: (0x410678) 

-- PC: (0x410678) 

-- PC: (0x410678) 

-- PC: (0x410678) 

-- PC: (0x410678) 

-- PC: (0x410678) 

-- PC: (0x41067c) 

-- PC: (0x41067c) 

-- PC: (0x41067c) 

-- PC: (0x41067c) 

-- PC: (0x41067c) 

-- PC: (0x41067c) 

-- PC: (0x41067c) 

-- PC: (0x41067c) 

-- PC: (0x41067c) 

-- ReadReq [10680:106bf] IF Miss --  Latency: 502 

-- PC: (0x410648) 

-- PC: (0x41064f) 

-- PC: (0x410653) 

-- PC: (0x410661) 

-- PC: (0x410661) 

-- PC: (0x410665) 

-- PC: (0x410665) 

-- PC: (0x410648) 

-- Tick (136779000) -- ISN: (89252) : L from (0x6b97a0) -- of Size = (8)-- PC: (0x410648) 

 -- vaddr (0x6b97a0) -- paddr (0xb97a0) 

-- ReadReq [b97a0:b97a7] Miss --  Latency: 502 

-- PC: (0x41063f) 

-- PC: (0x41063f) 

-- PC: (0x410642) 

-- PC: (0x410642) 

-- PC: (0x410642) 

-- PC: (0x410642) 

-- PC: (0x410642) 

-- PC: (0x410642) 

-- PC: (0x410642) 

-- PC: (0x410642) 

-- PC: (0x410648) 

-- PC: (0x410648) 

-- PC: (0x410648) 

-- PC: (0x410648) 

-- PC: (0x41067c) 

-- PC: (0x41067c) 

-- PC: (0x41067c) 

-- PC: (0x41067c) 

-- PC: (0x41067c) 

-- PC: (0x41067c) 

-- PC: (0x41067c) 

-- PC: (0x41067c) 

-- PC: (0x410683) 

-- PC: (0x410683) 

-- PC: (0x410683) 

-- PC: (0x410683) 

-- PC: (0x410683) 

-- PC: (0x410683) 

-- PC: (0x410683) 

-- PC: (0x410683) 

-- PC: (0x410683) 

-- PC: (0x410683) 

-- PC: (0x410683) 

-- PC: (0x410683) 

-- PC: (0x410685) 

-- PC: (0x410683) 

-- PC: (0x410685) 

-- PC: (0x410683) 

-- PC: (0x410685) 

-- PC: (0x410685) 

-- PC: (0x410685) 

-- PC: (0x410685) 

-- PC: (0x410685) 

-- PC: (0x410685) 

-- PC: (0x410685) 

-- PC: (0x410685) 

-- PC: (0x41068c) 

-- PC: (0x41068c) 

-- PC: (0x41068c) 

-- PC: (0x41068c) 

-- PC: (0x41068c) 

-- PC: (0x41068c) 

-- PC: (0x41068c) 

-- PC: (0x41068c) 

-- PC: (0x41068c) 

-- PC: (0x41068c) 

-- PC: (0x41068c) 

-- PC: (0x41068c) 

-- PC: (0x41068c) 

-- PC: (0x41068c) 

-- PC: (0x41068c) 

-- PC: (0x41068c) 

-- PC: (0x410690) 

-- PC: (0x410690) 

-- PC: (0x410690) 

-- PC: (0x410690) 

-- PC: (0x410690) 

-- PC: (0x410690) 

-- PC: (0x410690) 

-- PC: (0x410690) 

-- PC: (0x410690) 

-- PC: (0x410690) 

-- PC: (0x410690) 

-- PC: (0x410692) 

-- PC: (0x410690) 

-- PC: (0x410692) 

-- PC: (0x410690) 

-- PC: (0x410692) 

-- PC: (0x410692) 

-- PC: (0x410692) 

-- PC: (0x410692) 

-- PC: (0x410692) 

-- PC: (0x410692) 

-- PC: (0x410692) 

-- PC: (0x410692) 

-- PC: (0x410692) 

-- PC: (0x410692) 

-- PC: (0x41069a) 

-- PC: (0x41069a) 

-- PC: (0x41069a) 

-- PC: (0x41069a) 

-- PC: (0x41069a) 

-- PC: (0x41069a) 

-- PC: (0x41069a) 

-- PC: (0x41069a) 

-- PC: (0x41069a) 

-- PC: (0x41069a) 

-- PC: (0x41069a) 

-- PC: (0x41069a) 

-- PC: (0x41069a) 

-- PC: (0x41069a) 

-- PC: (0x41069a) 

-- PC: (0x41069a) 

-- PC: (0x41069a) 

-- PC: (0x4106a1) 

-- PC: (0x4106a1) 

-- PC: (0x4106a1) 

-- PC: (0x4106a1) 

-- PC: (0x4106a1) 

-- PC: (0x4106a1) 

-- PC: (0x4106a1) 

-- PC: (0x4106a1) 

-- PC: (0x4106a1) 

-- PC: (0x4106a1) 

-- PC: (0x4106a1) 

-- PC: (0x4106a1) 

-- PC: (0x4106aa) 

-- PC: (0x4106a1) 

-- PC: (0x4106aa) 

-- PC: (0x4106a1) 

-- PC: (0x4106aa) 

-- PC: (0x4106aa) 

-- PC: (0x4106aa) 

-- PC: (0x4106aa) 

-- PC: (0x4106aa) 

-- PC: (0x4106aa) 

-- PC: (0x4106aa) 

-- PC: (0x4106aa) 

-- PC: (0x4106aa) 

-- PC: (0x4106aa) 

-- PC: (0x4106aa) 

-- PC: (0x4106aa) 

-- PC: (0x4106aa) 

-- PC: (0x4106ac) 

-- PC: (0x4106ac) 

-- PC: (0x4106ac) 

-- PC: (0x4106ac) 

-- PC: (0x4106ac) 

-- PC: (0x4106ac) 

-- PC: (0x4106ac) 

-- PC: (0x4106ac) 

-- PC: (0x4106ac) 

-- PC: (0x4106ac) 

-- PC: (0x4106ac) 

-- PC: (0x4106ac) 

-- PC: (0x4106c4) 

-- PC: (0x4106ac) 

-- PC: (0x4106c4) 

-- PC: (0x4106ac) 

-- PC: (0x4106c4) 

-- PC: (0x4106c4) 

-- PC: (0x4106c4) 

-- PC: (0x4106c4) 

-- PC: (0x4106c4) 

-- ReadReq [106c0:106ff] IF Miss --  Latency: 502 

-- PC: (0x41067c) 

-- PC: (0x410685) 

-- PC: (0x41067c) 

-- PC: (0x410685) 

-- PC: (0x41068c) 

-- PC: (0x41068c) 

-- PC: (0x41068c) 

-- PC: (0x410692) 

-- PC: (0x410692) 

-- Tick (136833500) -- ISN: (89270) : L from (0x6b9360) -- of Size = (4)-- PC: (0x41067c) 

 -- vaddr (0x6b9360) -- paddr (0xb9360) 

-- ReadReq [b9360:b9363] Hit -- Blk -> state: f (M) valid: 1 writable: 1 readable: 1 dirty: 1 | tag: 0x2e4 set: 0xd way: 0 Latency: 2 

-- Tick (136833500) -- ISN: (89276) : L from (0x6b93e8) -- of Size = (8)-- PC: (0x410685) 

 -- vaddr (0x6b93e8) -- paddr (0xb93e8) 

-- ReadReq [b93e8:b93ef] Hit -- Blk -> state: 7 (E) valid: 1 writable: 1 readable: 1 dirty: 0 | tag: 0x2e4 set: 0xf way: 0 Latency: 2 

-- PC: (0x41069a) 

-- PC: (0x4106aa) 

-- PC: (0x4106aa) 

-- PC: (0x4106aa) 

-- PC: (0x41069a) 

-- Tick (136835000) -- ISN: (89288) : L from (0x6c4a4c) -- of Size = (4)-- PC: (0x41069a) 

 -- vaddr (0x6c4a4c) -- paddr (0xc4a4c) 

-- ReadReq [c4a4c:c4a4f] Hit -- Blk -> state: 7 (E) valid: 1 writable: 1 readable: 1 dirty: 0 | tag: 0x312 set: 0x9 way: 0 Latency: 2 

-- PC: (0x41068c) 

-- PC: (0x410692) 

-- PC: (0x4106aa) 

-- Tick (136835500) -- ISN: (89278) : L from (0x6bbd34) -- of Size = (4)-- PC: (0x41068c) 

 -- vaddr (0x6bbd34) -- paddr (0xbbd34) 

-- ReadReq [bbd34:bbd37] Miss --  Latency: 502 

-- Tick (136835500) -- ISN: (89285) : S -> (0x0) at (0x6bbd38) -- Size = (8)-- PC: (0x410692) 

 -- vaddr (0x6bbd38) -- paddr (0xbbd38) 

-- Tick (136835500) -- ISN: (89293) : L from (0x6bbd30) -- of Size = (4)-- PC: (0x4106aa) 

 -- vaddr (0x6bbd30) -- paddr (0xbbd30) 

-- ReadReq [bbd30:bbd33] Miss --  Latency: 502 

-- PC: (0x41064f) 

-- PC: (0x410653) 

-- Tick (136836500) -- ISN: (89253) : L from (0x6b9388) -- of Size = (8)-- PC: (0x41064f) 

 -- vaddr (0x6b9388) -- paddr (0xb9388) 

-- ReadReq [b9388:b938f] Miss --  Latency: 502 

-- Tick (136836500) -- ISN: (89254) : L from (0x6b9390) -- of Size = (8)-- PC: (0x410653) 

 -- vaddr (0x6b9390) -- paddr (0xb9390) 

-- ReadReq [b9390:b9397] Miss --  Latency: 502 

-- PC: (0x410648) 

-- PC: (0x410648) 

-- PC: (0x41064f) 

-- PC: (0x41064f) 

-- PC: (0x410665) 

-- Tick (136864500) -- ISN: (89262) : S -> (0xa) at (0x6c6a60) -- Size = (1)-- PC: (0x410665) 

 -- vaddr (0x6c6a60) -- paddr (0xc8a60) 

-- PC: (0x410661) 

-- Tick (136865000) -- ISN: (89260) : S -> (0x61) at (0x6b9388) -- Size = (8)-- PC: (0x410661) 

 -- vaddr (0x6b9388) -- paddr (0xb9388) 

-- PC: (0x41064f) 

-- PC: (0x41064f) 

-- PC: (0x410653) 

-- PC: (0x410653) 

-- PC: (0x410653) 

-- PC: (0x410653) 

-- PC: (0x410657) 

-- PC: (0x410708) 

-- PC: (0x410708) 

-- PC: (0x410708) 

-- PC: (0x410708) 

-- Sqsh -> ISN (89258)

-- PC: (0x410708) 

-- PC: (0x410708) 

-- ReadReq [10700:1073f] IF Miss --  Latency: 502 

-- PC: (0x410653) 

-- PC: (0x410653) 

-- PC: (0x410657) 

-- PC: (0x410657) 

-- PC: (0x410657) 

-- PC: (0x410657) 

-- PC: (0x410657) 

-- PC: (0x410657) 

-- PC: (0x410657) 

-- PC: (0x410657) 

-- PC: (0x410708) 

-- PC: (0x410708) 

-- PC: (0x410708) 

-- PC: (0x410708) 

-- PC: (0x410708) 

-- PC: (0x410708) 

-- PC: (0x41070d) 

-- PC: (0x41070d) 

-- PC: (0x41070d) 

-- PC: (0x41070d) 

-- PC: (0x41070d) 

-- PC: (0x41070d) 

-- PC: (0x41070d) 

-- PC: (0x41070d) 

-- PC: (0x41070d) 

-- PC: (0x41070d) 

-- PC: (0x41070d) 

-- PC: (0x41070d) 

-- PC: (0x41070d) 

-- PC: (0x41070d) 

-- PC: (0x41070d) 

-- PC: (0x41070d) 

-- PC: (0x41070d) 

-- PC: (0x41070d) 

-- PC: (0x410712) 

-- PC: (0x41070d) 

-- PC: (0x410712) 

-- PC: (0x41070d) 

-- PC: (0x410712) 

-- PC: (0x410712) 

-- PC: (0x410712) 

-- PC: (0x410712) 

-- PC: (0x410712) 

-- PC: (0x410712) 

-- PC: (0x410712) 

-- PC: (0x410712) 

-- PC: (0x410715) 

-- PC: (0x410715) 

-- PC: (0x410715) 

-- PC: (0x410715) 

-- PC: (0x410715) 

-- PC: (0x410715) 

-- PC: (0x410715) 

-- PC: (0x410715) 

-- PC: (0x410715) 

-- PC: (0x410715) 

-- PC: (0x410715) 

-- PC: (0x410715) 

-- PC: (0x410715) 

-- PC: (0x410715) 

-- PC: (0x410715) 

-- PC: (0x410715) 

-- PC: (0x410715) 

-- PC: (0x41071b) 

-- PC: (0x410715) 

-- PC: (0x41071b) 

-- PC: (0x410715) 

-- PC: (0x41071b) 

-- PC: (0x41071b) 

-- PC: (0x41071b) 

-- PC: (0x41071b) 

-- PC: (0x41071b) 

-- PC: (0x41071b) 

-- PC: (0x41071b) 

-- PC: (0x41071b) 

-- PC: (0x41071b) 

-- PC: (0x41071b) 

-- PC: (0x41071b) 

-- PC: (0x41071b) 

-- PC: (0x41071d) 

-- PC: (0x41071b) 

-- PC: (0x41071d) 

-- PC: (0x41071b) 

-- PC: (0x41071d) 

-- PC: (0x41071d) 

-- PC: (0x41071d) 

-- PC: (0x41071d) 

-- PC: (0x41071d) 

-- PC: (0x41071d) 

-- PC: (0x41071d) 

-- PC: (0x41071d) 

-- PC: (0x41071d) 

-- PC: (0x41071d) 

-- PC: (0x41071d) 

-- PC: (0x41071d) 

-- PC: (0x41071d) 

-- PC: (0x41071d) 

-- PC: (0x41071d) 

-- PC: (0x41071d) 

-- PC: (0x410724) 

-- PC: (0x410724) 

-- PC: (0x410724) 

-- PC: (0x410724) 

-- PC: (0x410724) 

-- PC: (0x410724) 

-- PC: (0x410727) 

-- PC: (0x410727) 

-- PC: (0x410727) 

-- PC: (0x410727) 

-- PC: (0x410727) 

-- PC: (0x410727) 

-- PC: (0x410727) 

-- PC: (0x410727) 

-- PC: (0x410727) 

-- PC: (0x410727) 

-- PC: (0x410727) 

-- PC: (0x410727) 

-- PC: (0x410727) 

-- PC: (0x410727) 

-- PC: (0x410729) 

-- PC: (0x410727) 

-- PC: (0x410729) 

-- PC: (0x410727) 

-- PC: (0x410729) 

-- PC: (0x410729) 

-- PC: (0x410729) 

-- PC: (0x410729) 

-- PC: (0x410729) 

-- PC: (0x410729) 

-- PC: (0x410730) 

-- PC: (0x410730) 

-- PC: (0x410730) 

-- PC: (0x410730) 

-- PC: (0x410730) 

-- PC: (0x410730) 

-- PC: (0x410730) 

-- PC: (0x410730) 

-- PC: (0x410730) 

-- PC: (0x410730) 

-- PC: (0x410730) 

-- PC: (0x410730) 

-- PC: (0x410730) 

-- PC: (0x410730) 

-- PC: (0x410730) 

-- PC: (0x410734) 

-- PC: (0x410734) 

-- PC: (0x410734) 

-- PC: (0x410734) 

-- PC: (0x410734) 

-- PC: (0x410734) 

-- PC: (0x410734) 

-- PC: (0x410734) 

-- PC: (0x410734) 

-- PC: (0x410734) 

-- PC: (0x410734) 

-- PC: (0x410734) 

-- PC: (0x410736) 

-- PC: (0x410734) 

-- PC: (0x410736) 

-- PC: (0x410734) 

-- PC: (0x410736) 

-- PC: (0x410736) 

-- PC: (0x410736) 

-- PC: (0x410736) 

-- PC: (0x410736) 

-- PC: (0x410736) 

-- PC: (0x410736) 

-- PC: (0x410736) 

-- PC: (0x410736) 

-- PC: (0x410736) 

-- PC: (0x41073e) 

-- PC: (0x41073e) 

-- PC: (0x41073e) 

-- PC: (0x41073e) 

-- PC: (0x41073e) 

-- PC: (0x41073e) 

-- PC: (0x41073e) 

-- PC: (0x41073e) 

-- PC: (0x41073e) 

-- ReadReq [10740:1077f] IF Miss --  Latency: 502 

-- PC: (0x41070d) 

-- PC: (0x41070d) 

-- PC: (0x41071d) 

-- PC: (0x41070d) 

-- PC: (0x41071d) 

-- PC: (0x410729) 

-- PC: (0x410730) 

-- Tick (136925000) -- ISN: (89302) : S -> (0x12) at (0x7fffffffecb8) -- Size = (8)-- PC: (0x41070d) 

 -- vaddr (0x7fffffffecb8) -- paddr (0xc5cb8) 

-- Tick (136925000) -- ISN: (89313) : L from (0x6b9360) -- of Size = (4)-- PC: (0x41071d) 

 -- vaddr (0x6b9360) -- paddr (0xb9360) 

-- ReadReq [b9360:b9363] Hit -- Blk -> state: f (M) valid: 1 writable: 1 readable: 1 dirty: 1 | tag: 0x2e4 set: 0xd way: 0 Latency: 2 

-- PC: (0x410729) 

-- PC: (0x410730) 

-- PC: (0x410730) 

-- PC: (0x410736) 

-- PC: (0x410736) 

-- Tick (136925500) -- ISN: (89320) : L from (0x6b93e8) -- of Size = (8)-- PC: (0x410729) 

 -- vaddr (0x6b93e8) -- paddr (0xb93e8) 

-- ReadReq [b93e8:b93ef] Hit -- Blk -> state: 7 (E) valid: 1 writable: 1 readable: 1 dirty: 0 | tag: 0x2e4 set: 0xf way: 0 Latency: 2 

-- PC: (0x41070d) 

-- PC: (0x4165a0) 

-- PC: (0x4165a0) 

-- PC: (0x4165a0) 

-- PC: (0x4165a0) 

-- Sqsh -> ISN (89304)

-- PC: (0x4165a0) 

-- PC: (0x4165a0) 

-- ReadReq [16580:165bf] IF Miss --  Latency: 502 

-- PC: (0x410708) 

-- PC: (0x410708) 

-- PC: (0x41070d) 

-- PC: (0x41070d) 

-- PC: (0x41070d) 

-- PC: (0x41070d) 

-- PC: (0x41070d) 

-- PC: (0x41070d) 

-- PC: (0x41070d) 

-- PC: (0x41070d) 

-- PC: (0x41070d) 

-- PC: (0x41070d) 

-- PC: (0x41070d) 

-- PC: (0x41070d) 

-- PC: (0x4165a0) 

-- PC: (0x4165a0) 

-- WriteReq [c5cb8:c5cbf] Hit -- Blk -> state: 7 (E) valid: 1 writable: 1 readable: 1 dirty: 0 | tag: 0x317 set: 0x2 way: 0 Latency: 2 

-- PC: (0x4165a0) 

-- PC: (0x4165a0) 

-- PC: (0x4165a0) 

-- PC: (0x4165a0) 

-- PC: (0x4165a0) 

-- PC: (0x4165a0) 

-- PC: (0x4165a1) 

-- PC: (0x4165a1) 

-- PC: (0x4165a1) 

-- PC: (0x4165a1) 

-- PC: (0x4165a1) 

-- PC: (0x4165a1) 

-- PC: (0x4165a1) 

-- PC: (0x4165a1) 

-- PC: (0x4165a5) 

-- PC: (0x4165a5) 

-- PC: (0x4165a5) 

-- PC: (0x4165a5) 

-- PC: (0x4165a5) 

-- PC: (0x4165a5) 

-- PC: (0x4165a5) 

-- PC: (0x4165a5) 

-- PC: (0x4165ab) 

-- PC: (0x4165ab) 

-- PC: (0x4165ab) 

-- PC: (0x4165ab) 

-- PC: (0x4165ab) 

-- PC: (0x4165ab) 

-- PC: (0x4165ad) 

-- PC: (0x4165ad) 

-- PC: (0x4165ad) 

-- PC: (0x4165ad) 

-- PC: (0x4165ad) 

-- PC: (0x4165ad) 

-- PC: (0x4165ad) 

-- PC: (0x4165ad) 

-- PC: (0x4165ad) 

-- PC: (0x4165ad) 

-- PC: (0x4165ad) 

-- PC: (0x4165ad) 

-- PC: (0x4165ad) 

-- PC: (0x4165ad) 

-- PC: (0x4165ad) 

-- PC: (0x4165ad) 

-- PC: (0x4165af) 

-- PC: (0x4165ad) 

-- PC: (0x4165af) 

-- PC: (0x4165ad) 

-- PC: (0x4165af) 

-- PC: (0x4165af) 

-- PC: (0x4165af) 

-- PC: (0x4165af) 

-- PC: (0x4165af) 

-- PC: (0x4165af) 

-- PC: (0x4165af) 

-- PC: (0x4165af) 

-- PC: (0x4165af) 

-- PC: (0x4165af) 

-- PC: (0x4165af) 

-- PC: (0x4165af) 

-- PC: (0x4165b9) 

-- PC: (0x4165b9) 

-- PC: (0x4165b9) 

-- PC: (0x4165b9) 

-- PC: (0x4165b9) 

-- PC: (0x4165b9) 

-- PC: (0x4165c0) 

-- PC: (0x4165c0) 

-- PC: (0x4165c0) 

-- PC: (0x4165c0) 

-- PC: (0x4165c0) 

-- PC: (0x4165c0) 

-- ReadReq [165c0:165ff] IF Miss --  Latency: 502 

-- PC: (0x4165a0) 

-- PC: (0x4165a0) 

-- PC: (0x4165a5) 

-- PC: (0x4165a0) 

-- PC: (0x4165a5) 

-- PC: (0x4165af) 

-- PC: (0x4165af) 

-- PC: (0x4165b9) 

-- Tick (136984500) -- ISN: (89330) : S -> (0x39) at (0x7fffffffecb0) -- Size = (8)-- PC: (0x4165a0) 

 -- vaddr (0x7fffffffecb0) -- paddr (0xc5cb0) 

-- Tick (136984500) -- ISN: (89334) : L from (0x6b9420) -- of Size = (4)-- PC: (0x4165a5) 

 -- vaddr (0x6b9420) -- paddr (0xb9420) 

-- ReadReq [b9420:b9423] Miss --  Latency: 502 

-- PC: (0x4165b9) 

-- Tick (136985000) -- ISN: (89341) : L from (0x6b9438) -- of Size = (8)-- PC: (0x4165b9) 

 -- vaddr (0x6b9438) -- paddr (0xb9438) 

-- ReadReq [b9438:b943f] Miss --  Latency: 502 

-- PC: (0x4165af) 

-- Tick (136985500) -- ISN: (89340) : S -> (0xff) at (0x6b9420) -- Size = (4)-- PC: (0x4165af) 

 -- vaddr (0x6b9420) -- paddr (0xb9420) 

-- PC: (0x4165a0) 

-- PC: (0x4165a0) 

-- PC: (0x4165a0) 

-- PC: (0x4165a0) 

-- PC: (0x4165a1) 

-- PC: (0x4165a1) 

-- PC: (0x4165a1) 

-- PC: (0x4165a1) 

-- PC: (0x4165a1) 

-- PC: (0x4165a1) 

-- PC: (0x4165a5) 

-- PC: (0x4165a5) 

-- WriteReq [c5cb0:c5cb7] Hit -- Blk -> state: f (M) valid: 1 writable: 1 readable: 1 dirty: 1 | tag: 0x317 set: 0x2 way: 0 Latency: 2 

-- PC: (0x4165c0) 

-- PC: (0x4165c0) 

-- PC: (0x4165c0) 

-- PC: (0x4165c0) 

-- PC: (0x4165c7) 

-- PC: (0x4165c7) 

-- PC: (0x4165c7) 

-- PC: (0x4165c7) 

-- PC: (0x4165c7) 

-- PC: (0x4165c7) 

-- PC: (0x4165c7) 

-- PC: (0x4165c7) 

-- PC: (0x4165ce) 

-- PC: (0x4165ce) 

-- PC: (0x4165ce) 

-- PC: (0x4165ce) 

-- PC: (0x4165ce) 

-- PC: (0x4165ce) 

-- PC: (0x4165ce) 

-- PC: (0x4165ce) 

-- PC: (0x4165d1) 

-- PC: (0x4165d1) 

-- PC: (0x4165d1) 

-- PC: (0x4165d1) 

-- PC: (0x4165d1) 

-- PC: (0x4165d1) 

-- PC: (0x4165d4) 

-- PC: (0x4165d4) 

-- PC: (0x4165d4) 

-- PC: (0x4165d4) 

-- PC: (0x4165d4) 

-- PC: (0x4165d4) 

-- PC: (0x4165d7) 

-- PC: (0x4165d7) 

-- PC: (0x4165d7) 

-- PC: (0x4165d7) 

-- PC: (0x4165d7) 

-- PC: (0x4165d7) 

-- PC: (0x4165d7) 

-- PC: (0x4165d7) 

-- PC: (0x4165da) 

-- PC: (0x4165da) 

-- PC: (0x4165da) 

-- PC: (0x4165da) 

-- PC: (0x4165da) 

-- PC: (0x4165da) 

-- PC: (0x4165da) 

-- PC: (0x4165da) 

-- PC: (0x4165da) 

-- PC: (0x4165da) 

-- PC: (0x4165da) 

-- PC: (0x4165da) 

-- PC: (0x4165da) 

-- PC: (0x4165da) 

-- PC: (0x4165da) 

-- PC: (0x4165da) 

-- PC: (0x4165dc) 

-- PC: (0x4165da) 

-- PC: (0x4165dc) 

-- PC: (0x4165da) 

-- PC: (0x4165dc) 

-- PC: (0x4165dc) 

-- PC: (0x4165dc) 

-- PC: (0x4165dc) 

-- PC: (0x4165dc) 

-- PC: (0x4165dc) 

-- PC: (0x4165e0) 

-- PC: (0x4165e0) 

-- PC: (0x4165e0) 

-- PC: (0x4165e0) 

-- PC: (0x4165e0) 

-- PC: (0x4165e0) 

-- PC: (0x4165e0) 

-- PC: (0x4165e4) 

-- PC: (0x4165e4) 

-- PC: (0x4165e4) 

-- PC: (0x4165e4) 

-- PC: (0x4165e4) 

-- PC: (0x4165e4) 

-- PC: (0x4165e4) 

-- PC: (0x4165e4) 

-- PC: (0x4165e4) 

-- PC: (0x4165e4) 

-- PC: (0x4165e5) 

-- PC: (0x4165e5) 

-- PC: (0x4165e5) 

-- PC: (0x4165e5) 

-- PC: (0x4165e5) 

-- PC: (0x4165e5) 

-- PC: (0x4165e5) 

-- PC: (0x4165e5) 

-- PC: (0x4165e7) 

-- PC: (0x4165e5) 

-- PC: (0x4165e7) 

-- PC: (0x4165e5) 

-- PC: (0x4165e7) 

-- PC: (0x4165e7) 

-- PC: (0x4165e7) 

-- PC: (0x4165e7) 

-- PC: (0x4165e7) 

-- PC: (0x4165e7) 

-- PC: (0x4165e7) 

-- PC: (0x4165e7) 

-- PC: (0x4165e7) 

-- PC: (0x4165e7) 

-- PC: (0x4165e7) 

-- PC: (0x4165f0) 

-- PC: (0x4165f0) 

-- PC: (0x4165f0) 

-- PC: (0x4165f0) 

-- PC: (0x4165f0) 

-- PC: (0x4165f4) 

-- PC: (0x4165f4) 

-- PC: (0x4165f4) 

-- PC: (0x4165f4) 

-- PC: (0x4165f4) 

-- PC: (0x4165f4) 

-- PC: (0x4165f8) 

-- PC: (0x4165f8) 

-- PC: (0x4165f8) 

-- PC: (0x4165f8) 

-- PC: (0x4165f8) 

-- PC: (0x4165f8) 

-- PC: (0x4165f8) 

-- PC: (0x4165f8) 

-- PC: (0x4165f8) 

-- PC: (0x4165f8) 

-- PC: (0x4165f8) 

-- PC: (0x4165f8) 

-- PC: (0x4165f8) 

-- PC: (0x4165f8) 

-- PC: (0x4165f8) 

-- PC: (0x412880) 

-- PC: (0x4165f8) 

-- PC: (0x412880) 

-- PC: (0x4165f8) 

-- PC: (0x412880) 

-- PC: (0x412880) 

-- PC: (0x412880) 

-- PC: (0x412880) 

-- PC: (0x412880) 

-- ReadReq [12880:128bf] IF Miss --  Latency: 502 

-- PC: (0x4165dc) 

-- PC: (0x4165e4) 

-- PC: (0x4165f0) 

-- PC: (0x4165f0) 

-- PC: (0x4165f4) 

-- PC: (0x4165f4) 

-- PC: (0x4165f8) 

-- PC: (0x4165f8) 

-- PC: (0x4165e4) 

-- Tick (137041000) -- ISN: (89354) : L from (0x7fffffffecb0) -- of Size = (8)-- PC: (0x4165e4) 

 -- vaddr (0x7fffffffecb0) -- paddr (0xc5cb0) 

-- ReadReq [c5cb0:c5cb7] Hit -- Blk -> state: f (M) valid: 1 writable: 1 readable: 1 dirty: 1 | tag: 0x317 set: 0x2 way: 0 Latency: 2 

-- PC: (0x4165f0) 

-- PC: (0x4165f4) 

-- PC: (0x4165f8) 

-- Tick (137041500) -- ISN: (89359) : S -> (0xa) at (0x7fffffffecc4) -- Size = (4)-- PC: (0x4165f0) 

 -- vaddr (0x7fffffffecc4) -- paddr (0xc5cc4) 

-- Tick (137041500) -- ISN: (89360) : S -> (0x60) at (0x7fffffffecb8) -- Size = (8)-- PC: (0x4165f4) 

 -- vaddr (0x7fffffffecb8) -- paddr (0xc5cb8) 

-- Tick (137041500) -- ISN: (89363) : S -> (0xfd) at (0x7fffffffecb0) -- Size = (8)-- PC: (0x4165f8) 

 -- vaddr (0x7fffffffecb0) -- paddr (0xc5cb0) 

-- PC: (0x4165a5) 

-- PC: (0x4165a5) 

-- PC: (0x4165ab) 

-- PC: (0x4165ab) 

-- PC: (0x4165ad) 

-- PC: (0x4165b9) 

-- PC: (0x4165b9) 

-- PC: (0x4165b9) 

-- PC: (0x4165b9) 

-- Sqsh -> ISN (89338)

-- PC: (0x4165b9) 

-- PC: (0x4165b9) 

-- ReadReq [16580:165bf] IF Hit -- Blk -> state: 7 (E) valid: 1 writable: 1 readable: 1 dirty: 0 | tag: 0x59 set: 0x6 way: 0 Latency: 2 

-- PC: (0x4165b9) 

-- PC: (0x4165b9) 

-- PC: (0x4165b9) 

-- PC: (0x4165b9) 

-- PC: (0x4165b9) 

-- PC: (0x4165c0) 

-- PC: (0x4165c0) 

-- PC: (0x4165c0) 

-- PC: (0x4165c0) 

-- PC: (0x4165c0) 

-- PC: (0x4165c0) 

-- ReadReq [165c0:165ff] IF Hit -- Blk -> state: 7 (E) valid: 1 writable: 1 readable: 1 dirty: 0 | tag: 0x59 set: 0x7 way: 0 Latency: 2 

-- PC: (0x4165ab) 

-- PC: (0x4165ab) 

-- PC: (0x4165ad) 

-- PC: (0x4165ad) 

-- PC: (0x4165ad) 

-- PC: (0x4165ad) 

-- PC: (0x4165ad) 

-- PC: (0x4165ad) 

-- PC: (0x4165ad) 

-- PC: (0x4165ad) 

-- PC: (0x4165b9) 

-- PC: (0x4165b9) 

-- PC: (0x4165c0) 

-- PC: (0x4165c0) 

-- PC: (0x4165c0) 

-- PC: (0x4165c0) 

-- PC: (0x4165c7) 

-- PC: (0x4165c7) 

-- PC: (0x4165c7) 

-- PC: (0x4165c7) 

-- PC: (0x4165c7) 

-- PC: (0x4165c7) 

-- PC: (0x4165c7) 

-- PC: (0x4165c7) 

-- PC: (0x4165ce) 

-- PC: (0x4165ce) 

-- PC: (0x4165ce) 

-- PC: (0x4165ce) 

-- PC: (0x4165ce) 

-- PC: (0x4165ce) 

-- PC: (0x4165ce) 

-- PC: (0x4165ce) 

-- PC: (0x4165d1) 

-- PC: (0x4165d1) 

-- PC: (0x4165d1) 

-- PC: (0x4165d1) 

-- PC: (0x4165d1) 

-- PC: (0x4165d1) 

-- PC: (0x4165d4) 

-- PC: (0x4165d4) 

-- PC: (0x4165d4) 

-- PC: (0x4165d4) 

-- PC: (0x4165d4) 

-- PC: (0x4165d4) 

-- PC: (0x4165d7) 

-- PC: (0x4165d7) 

-- PC: (0x4165d7) 

-- PC: (0x4165d7) 

-- PC: (0x4165d7) 

-- PC: (0x4165d7) 

-- PC: (0x4165d7) 

-- PC: (0x4165d7) 

-- PC: (0x4165da) 

-- PC: (0x4165da) 

-- PC: (0x4165da) 

-- PC: (0x4165da) 

-- PC: (0x4165da) 

-- PC: (0x4165da) 

-- PC: (0x4165da) 

-- PC: (0x4165da) 

-- PC: (0x4165da) 

-- PC: (0x4165da) 

-- PC: (0x4165da) 

-- PC: (0x4165da) 

-- PC: (0x4165da) 

-- PC: (0x4165da) 

-- PC: (0x4165da) 

-- PC: (0x4165da) 

-- PC: (0x4165dc) 

-- PC: (0x4165da) 

-- PC: (0x4165dc) 

-- PC: (0x4165da) 

-- PC: (0x4165dc) 

-- PC: (0x4165dc) 

-- PC: (0x4165dc) 

-- PC: (0x4165dc) 

-- PC: (0x4165dc) 

-- PC: (0x4165dc) 

-- PC: (0x4165e0) 

-- PC: (0x4165e0) 

-- PC: (0x4165e0) 

-- PC: (0x4165e0) 

-- PC: (0x4165e0) 

-- PC: (0x4165e0) 

-- PC: (0x4165e0) 

-- PC: (0x4165e4) 

-- PC: (0x4165e4) 

-- PC: (0x4165e4) 

-- PC: (0x4165e4) 

-- PC: (0x4165e4) 

-- PC: (0x4165e4) 

-- PC: (0x4165e4) 

-- PC: (0x4165e4) 

-- PC: (0x4165e4) 

-- PC: (0x4165e4) 

-- PC: (0x4165e5) 

-- PC: (0x4165e5) 

-- PC: (0x4165e5) 

-- PC: (0x4165e5) 

-- PC: (0x4165e5) 

-- PC: (0x4165e5) 

-- PC: (0x4165e5) 

-- PC: (0x4165e5) 

-- PC: (0x415490) 

-- PC: (0x4165e5) 

-- PC: (0x415490) 

-- PC: (0x4165e5) 

-- PC: (0x415490) 

-- PC: (0x415490) 

-- PC: (0x415490) 

-- PC: (0x415490) 

-- PC: (0x415490) 

-- ReadReq [15480:154bf] IF Miss --  Latency: 502 

-- PC: (0x4165b9) 

-- PC: (0x4165b9) 

-- Tick (137049000) -- ISN: (89366) : L from (0x6b9438) -- of Size = (8)-- PC: (0x4165b9) 

 -- vaddr (0x6b9438) -- paddr (0xb9438) 

-- ReadReq [b9438:b943f] Hit -- Blk -> state: 7 (E) valid: 1 writable: 1 readable: 1 dirty: 0 | tag: 0x2e5 set: 0 way: 0 Latency: 2 

-- PC: (0x4165dc) 

-- PC: (0x4165e4) 

-- PC: (0x4165dc) 

-- Tick (137050500) -- ISN: (89376) : L from (0x6baff8) -- of Size = (8)-- PC: (0x4165dc) 

 -- vaddr (0x6baff8) -- paddr (0xbaff8) 

-- ReadReq [baff8:bafff] Miss --  Latency: 502 

-- PC: (0x4165e4) 

-- PC: (0x4165b9) 

-- PC: (0x4165b9) 

-- PC: (0x4165c0) 

-- PC: (0x4165c0) 

-- PC: (0x4165c0) 

-- PC: (0x4165c0) 

-- PC: (0x4165c7) 

-- PC: (0x4165c7) 

-- PC: (0x4165c7) 

-- PC: (0x4165c7) 

-- PC: (0x4165ce) 

-- PC: (0x4165ce) 

-- Tick (137051500) -- ISN: (89379) : L from (0x7fffffffecb0) -- of Size = (8)-- PC: (0x4165e4) 

 -- vaddr (0x7fffffffecb0) -- paddr (0xc5cb0) 

-- ReadReq [c5cb0:c5cb7] Hit -- Blk -> state: f (M) valid: 1 writable: 1 readable: 1 dirty: 1 | tag: 0x317 set: 0x2 way: 0 Latency: 2 

-- PC: (0x4165ce) 

-- PC: (0x4165ce) 

-- PC: (0x4165d1) 

-- PC: (0x4165d1) 

-- PC: (0x4165d1) 

-- PC: (0x4165d1) 

-- PC: (0x4165d4) 

-- PC: (0x4165d4) 

-- PC: (0x4165d4) 

-- PC: (0x4165d4) 

-- PC: (0x4165d7) 

-- PC: (0x4165d7) 

-- PC: (0x4165d7) 

-- PC: (0x4165d7) 

-- PC: (0x4165da) 

-- PC: (0x4165da) 

-- PC: (0x4165da) 

-- PC: (0x4165da) 

-- PC: (0x4165da) 

-- PC: (0x4165da) 

-- PC: (0x4165da) 

-- PC: (0x4165da) 

-- PC: (0x4165dc) 

-- PC: (0x4165dc) 

-- PC: (0x415490) 

-- PC: (0x415490) 

-- PC: (0x415490) 

-- PC: (0x415490) 

-- PC: (0x415492) 

-- PC: (0x415492) 

-- PC: (0x415492) 

-- PC: (0x415492) 

-- PC: (0x415492) 

-- PC: (0x415492) 

-- PC: (0x415492) 

-- PC: (0x415492) 

-- PC: (0x415495) 

-- PC: (0x415495) 

-- PC: (0x415495) 

-- PC: (0x415495) 

-- PC: (0x415495) 

-- PC: (0x415495) 

-- PC: (0x415495) 

-- PC: (0x415495) 

-- PC: (0x415495) 

-- PC: (0x415495) 

-- PC: (0x415495) 

-- PC: (0x415495) 

-- PC: (0x415495) 

-- PC: (0x415495) 

-- PC: (0x41549b) 

-- PC: (0x415495) 

-- PC: (0x41549b) 

-- PC: (0x415495) 

-- PC: (0x41549b) 

-- PC: (0x41549b) 

-- PC: (0x41549b) 

-- PC: (0x41549b) 

-- PC: (0x41549b) 

-- PC: (0x41549b) 

-- PC: (0x41549b) 

-- PC: (0x41549b) 

-- PC: (0x41549e) 

-- PC: (0x41549e) 

-- PC: (0x41549e) 

-- PC: (0x41549e) 

-- PC: (0x41549e) 

-- PC: (0x41549e) 

-- PC: (0x41549e) 

-- PC: (0x41549e) 

-- PC: (0x41549e) 

-- PC: (0x41549e) 

-- PC: (0x41549e) 

-- PC: (0x4154a0) 

-- PC: (0x4154a0) 

-- PC: (0x4154a0) 

-- PC: (0x4154a0) 

-- PC: (0x4154a0) 

-- PC: (0x4154a0) 

-- PC: (0x4154a0) 

-- PC: (0x4154a1) 

-- PC: (0x4154a1) 

-- PC: (0x4154a1) 

-- PC: (0x4154a1) 

-- PC: (0x4154a1) 

-- PC: (0x4154a1) 

-- PC: (0x4154a3) 

-- PC: (0x4154a3) 

-- PC: (0x4154a3) 

-- PC: (0x4154a3) 

-- PC: (0x4154a3) 

-- PC: (0x4154a3) 

-- PC: (0x4154a3) 

-- PC: (0x4154a3) 

-- PC: (0x4154a4) 

-- PC: (0x4154a4) 

-- PC: (0x4154a4) 

-- PC: (0x4154a4) 

-- PC: (0x4154a4) 

-- PC: (0x4154a4) 

-- PC: (0x4154a7) 

-- PC: (0x4154a7) 

-- PC: (0x4154a7) 

-- PC: (0x4154a7) 

-- PC: (0x4154a7) 

-- PC: (0x4154a7) 

-- PC: (0x4154a7) 

-- PC: (0x4154a7) 

-- PC: (0x4154a7) 

-- PC: (0x4154a7) 

-- PC: (0x4154a7) 

-- PC: (0x4154ab) 

-- PC: (0x4154ab) 

-- PC: (0x4154ab) 

-- PC: (0x4154ab) 

-- PC: (0x4154ab) 

-- PC: (0x4154ab) 

-- PC: (0x4154ab) 

-- PC: (0x4154ab) 

-- PC: (0x4154ab) 

-- PC: (0x4154ab) 

-- PC: (0x4154ab) 

-- PC: (0x4154ab) 

-- PC: (0x4154ad) 

-- PC: (0x4154ab) 

-- PC: (0x4154ad) 

-- PC: (0x4154ab) 

-- PC: (0x4154ad) 

-- PC: (0x4154ad) 

-- PC: (0x4154ad) 

-- PC: (0x4154ad) 

-- PC: (0x4154ad) 

-- PC: (0x4154ad) 

-- PC: (0x4154b0) 

-- PC: (0x4154b0) 

-- PC: (0x4154b0) 

-- PC: (0x4154b0) 

-- PC: (0x4154b0) 

-- PC: (0x4154b0) 

-- PC: (0x4154b0) 

-- PC: (0x4154b0) 

-- PC: (0x4154b0) 

-- PC: (0x4154b0) 

-- PC: (0x4154b0) 

-- PC: (0x4154b6) 

-- PC: (0x4154b0) 

-- PC: (0x4154b6) 

-- PC: (0x4154b0) 

-- PC: (0x4154b6) 

-- PC: (0x4154b6) 

-- PC: (0x4154b6) 

-- PC: (0x4154b6) 

-- PC: (0x4154b6) 

-- PC: (0x4154b6) 

-- PC: (0x4154b6) 

-- PC: (0x4154b6) 

-- PC: (0x4154b6) 

-- PC: (0x4154b6) 

-- PC: (0x4154b6) 

-- PC: (0x4154ba) 

-- PC: (0x4154ba) 

-- PC: (0x4154ba) 

-- PC: (0x4154ba) 

-- PC: (0x4154ba) 

-- PC: (0x4154ba) 

-- PC: (0x4154ba) 

-- PC: (0x4154ba) 

-- PC: (0x4154bd) 

-- PC: (0x4154bd) 

-- PC: (0x4154bd) 

-- PC: (0x4154bd) 

-- PC: (0x4154bd) 

-- PC: (0x4154bd) 

-- PC: (0x4154bd) 

-- PC: (0x4154bd) 

-- PC: (0x4154bd) 

-- ReadReq [154c0:154ff] IF Miss --  Latency: 502 

-- PC: (0x415490) 

-- PC: (0x415490) 

-- PC: (0x41549e) 

-- PC: (0x41549e) 

-- PC: (0x4154a0) 

-- PC: (0x4154a0) 

-- PC: (0x4154a3) 

-- PC: (0x4154a3) 

-- Tick (137071500) -- ISN: (89383) : L from (0x6b9360) -- of Size = (4)-- PC: (0x415490) 

 -- vaddr (0x6b9360) -- paddr (0xb9360) 

-- ReadReq [b9360:b9363] Hit -- Blk -> state: f (M) valid: 1 writable: 1 readable: 1 dirty: 1 | tag: 0x2e4 set: 0xd way: 0 Latency: 2 

-- PC: (0x41549e) 

-- PC: (0x4154a7) 

-- Tick (137072000) -- ISN: (89391) : S -> (0x40) at (0x7fffffffecb0) -- Size = (8)-- PC: (0x41549e) 

 -- vaddr (0x7fffffffecb0) -- paddr (0xc5cb0) 

-- PC: (0x4154a0) 

-- PC: (0x4154a7) 

-- PC: (0x4154b6) 

-- Tick (137072500) -- ISN: (89393) : S -> (0x60) at (0x7fffffffeca8) -- Size = (8)-- PC: (0x4154a0) 

 -- vaddr (0x7fffffffeca8) -- paddr (0xc5ca8) 

-- Tick (137072500) -- ISN: (89399) : L from (0x6b9380) -- of Size = (8)-- PC: (0x4154a7) 

 -- vaddr (0x6b9380) -- paddr (0xb9380) 

-- ReadReq [b9380:b9387] Hit -- Blk -> state: 7 (E) valid: 1 writable: 1 readable: 1 dirty: 0 | tag: 0x2e4 set: 0xe way: 0 Latency: 2 

-- PC: (0x4154a3) 

-- PC: (0x4154b6) 

-- Tick (137073000) -- ISN: (89396) : S -> (0x39) at (0x7fffffffeca0) -- Size = (8)-- PC: (0x4154a3) 

 -- vaddr (0x7fffffffeca0) -- paddr (0xc5ca0) 

-- Tick (137073000) -- ISN: (89407) : L from (0x6b9388) -- of Size = (8)-- PC: (0x4154b6) 

 -- vaddr (0x6b9388) -- paddr (0xb9388) 

-- ReadReq [b9388:b938f] Hit -- Blk -> state: 7 (E) valid: 1 writable: 1 readable: 1 dirty: 0 | tag: 0x2e4 set: 0xe way: 0 Latency: 2 

-- PC: (0x4154bd) 

-- PC: (0x4154bd) 

-- PC: (0x4154bd) 

-- PC: (0x4154bd) 

-- PC: (0x4154bd) 

-- PC: (0x4154bd) 

-- PC: (0x4154bd) 

-- PC: (0x4154bd) 

-- PC: (0x4154bd) 

-- PC: (0x4154bd) 

-- PC: (0x4154c3) 

-- PC: (0x4154bd) 

-- PC: (0x4154c3) 

-- PC: (0x4154bd) 

-- PC: (0x4154c3) 

-- PC: (0x4154c3) 

-- PC: (0x4154c3) 

-- PC: (0x4154c3) 

-- PC: (0x4154c3) 

-- PC: (0x4154c3) 

-- PC: (0x4154c3) 

-- PC: (0x4154c3) 

-- PC: (0x4154c7) 

-- PC: (0x4154c7) 

-- PC: (0x4154c7) 

-- PC: (0x4154c7) 

-- PC: (0x4154c7) 

-- PC: (0x4154c7) 

-- PC: (0x4154c7) 

-- PC: (0x4154c7) 

-- PC: (0x4154c7) 

-- PC: (0x4154c7) 

-- PC: (0x4154c7) 

-- PC: (0x4154c7) 

-- PC: (0x4154c7) 

-- PC: (0x4154c7) 

-- PC: (0x4154cd) 

-- PC: (0x4154c7) 

-- PC: (0x4154cd) 

-- PC: (0x4154c7) 

-- PC: (0x4154cd) 

-- PC: (0x4154cd) 

-- PC: (0x4154cd) 

-- PC: (0x4154cd) 

-- PC: (0x4154cd) 

-- PC: (0x4154cd) 

-- PC: (0x4154cd) 

-- PC: (0x4154cd) 

-- PC: (0x4154cd) 

-- PC: (0x4154cd) 

-- PC: (0x4154cd) 

-- PC: (0x4154d1) 

-- PC: (0x4154d1) 

-- PC: (0x4154d1) 

-- PC: (0x4154d1) 

-- PC: (0x4154d1) 

-- PC: (0x4154d1) 

-- PC: (0x4154d5) 

-- PC: (0x4154d5) 

-- PC: (0x4154d5) 

-- PC: (0x4154d5) 

-- PC: (0x4154d5) 

-- PC: (0x4154d5) 

-- PC: (0x4154d8) 

-- PC: (0x4154d8) 

-- PC: (0x4154d8) 

-- PC: (0x4154d8) 

-- PC: (0x4154d8) 

-- PC: (0x4154da) 

-- PC: (0x4154da) 

-- PC: (0x4154da) 

-- PC: (0x4154da) 

-- PC: (0x4154da) 

-- PC: (0x4154da) 

-- PC: (0x4154da) 

-- PC: (0x4154da) 

-- PC: (0x4154dc) 

-- PC: (0x4154dc) 

-- PC: (0x4154dc) 

-- PC: (0x4154dc) 

-- PC: (0x4154dc) 

-- PC: (0x4154dc) 

-- PC: (0x4154dc) 

-- PC: (0x4154dc) 

-- PC: (0x4154dc) 

-- PC: (0x4154dc) 

-- PC: (0x4154dc) 

-- PC: (0x4154dc) 

-- PC: (0x4154dc) 

-- PC: (0x4154dc) 

-- PC: (0x4154dc) 

-- PC: (0x4154dc) 

-- PC: (0x4154dc) 

-- PC: (0x4154dc) 

-- PC: (0x4154e2) 

-- PC: (0x4154dc) 

-- PC: (0x4154e2) 

-- PC: (0x4154dc) 

-- PC: (0x4154e2) 

-- PC: (0x4154e2) 

-- PC: (0x4154e2) 

-- PC: (0x4154e2) 

-- PC: (0x4154e2) 

-- PC: (0x4154e2) 

-- PC: (0x4154e2) 

-- PC: (0x4154e2) 

-- PC: (0x4154e5) 

-- PC: (0x4154e5) 

-- PC: (0x4154e5) 

-- PC: (0x4154e5) 

-- PC: (0x4154e5) 

-- PC: (0x4154e5) 

-- PC: (0x4154e5) 

-- PC: (0x4154e5) 

-- PC: (0x4154e5) 

-- PC: (0x4154e5) 

-- PC: (0x4154e5) 

-- PC: (0x4154e5) 

-- PC: (0x4154e7) 

-- PC: (0x4154e5) 

-- PC: (0x4154e7) 

-- PC: (0x4154e5) 

-- PC: (0x4154e7) 

-- PC: (0x4154e7) 

-- PC: (0x4154e7) 

-- PC: (0x4154e7) 

-- PC: (0x4154e7) 

-- PC: (0x4154e7) 

-- PC: (0x4154e7) 

-- PC: (0x4154e7) 

-- PC: (0x4154e7) 

-- PC: (0x4154e7) 

-- PC: (0x4154ea) 

-- PC: (0x4154ea) 

-- PC: (0x4154ea) 

-- PC: (0x4154ea) 

-- PC: (0x4154ea) 

-- PC: (0x4154ea) 

-- PC: (0x4154ea) 

-- PC: (0x4154ea) 

-- PC: (0x4154ea) 

-- PC: (0x4154ea) 

-- PC: (0x4154ea) 

-- PC: (0x4154ea) 

-- PC: (0x4154ea) 

-- PC: (0x4154ea) 

-- PC: (0x4154ea) 

-- PC: (0x4154f0) 

-- PC: (0x4154ea) 

-- PC: (0x4154f0) 

-- PC: (0x4154ea) 

-- PC: (0x4154f0) 

-- PC: (0x4154f0) 

-- PC: (0x4154f0) 

-- PC: (0x4154f0) 

-- PC: (0x4154f0) 

-- PC: (0x4154f0) 

-- PC: (0x4154f0) 

-- PC: (0x4154f4) 

-- PC: (0x4154f4) 

-- PC: (0x4154f4) 

-- PC: (0x4154f4) 

-- PC: (0x4154f4) 

-- PC: (0x4154f4) 

-- PC: (0x4154f4) 

-- PC: (0x4154f4) 

-- PC: (0x4154f4) 

-- PC: (0x4154f4) 

-- PC: (0x4154f5) 

-- PC: (0x4154f5) 

-- PC: (0x4154f5) 

-- PC: (0x4154f5) 

-- PC: (0x4154f5) 

-- PC: (0x4154f5) 

-- PC: (0x4154f5) 

-- PC: (0x4154f5) 

-- PC: (0x4154f5) 

-- PC: (0x4154f5) 

-- PC: (0x4154f5) 

-- PC: (0x4154f5) 

-- PC: (0x4154f5) 

-- PC: (0x4154f6) 

-- PC: (0x4154f6) 

-- PC: (0x4154f6) 

-- PC: (0x4154f6) 

-- PC: (0x4154f6) 

-- PC: (0x4154f6) 

-- PC: (0x4154f6) 

-- PC: (0x4154f6) 

-- PC: (0x4154f6) 

-- PC: (0x4154f6) 

-- PC: (0x4154f8) 

-- PC: (0x4154f8) 

-- PC: (0x4154f8) 

-- PC: (0x4154f8) 

-- PC: (0x4154f8) 

-- PC: (0x4154f8) 

-- PC: (0x4154f8) 

-- PC: (0x4154f8) 

-- PC: (0x4154f8) 

-- PC: (0x4154c3) 

-- PC: (0x4154c3) 

-- PC: (0x4154f8) 

-- PC: (0x4154f8) 

-- PC: (0x4154f8) 

-- PC: (0x4154f8) 

-- PC: (0x4154f8) 

-- PC: (0x410712) 

-- PC: (0x4154f8) 

-- PC: (0x410712) 

-- PC: (0x410712) 

-- PC: (0x410712) 

-- PC: (0x410712) 

-- PC: (0x410712) 

-- ReadReq [10700:1073f] IF Hit -- Blk -> state: 7 (E) valid: 1 writable: 1 readable: 1 dirty: 0 | tag: 0x41 set: 0xc way: 0 Latency: 2 

-- PC: (0x4154d1) 

-- PC: (0x4154d1) 

-- PC: (0x4154d5) 

-- PC: (0x4154d5) 

-- PC: (0x4154d8) 

-- Tick (137099500) -- ISN: (89413) : L from (0x6b93a0) -- of Size = (8)-- PC: (0x4154c3) 

 -- vaddr (0x6b93a0) -- paddr (0xb93a0) 

-- ReadReq [b93a0:b93a7] Hit -- Blk -> state: 7 (E) valid: 1 writable: 1 readable: 1 dirty: 0 | tag: 0x2e4 set: 0xe way: 0 Latency: 2 

-- PC: (0x4154d5) 

-- PC: (0x4154d8) 

-- Tick (137100000) -- ISN: (89420) : S -> (0xa) at (0x6c6a60) -- Size = (1)-- PC: (0x4154d5) 

 -- vaddr (0x6c6a60) -- paddr (0xc8a60) 

-- Tick (137100000) -- ISN: (89421) : L from (0x6b9360) -- of Size = (4)-- PC: (0x4154d8) 

 -- vaddr (0x6b9360) -- paddr (0xb9360) 

-- ReadReq [b9360:b9363] Hit -- Blk -> state: f (M) valid: 1 writable: 1 readable: 1 dirty: 1 | tag: 0x2e4 set: 0xd way: 0 Latency: 2 

-- PC: (0x410712) 

-- PC: (0x410712) 

-- PC: (0x410712) 

-- PC: (0x410712) 

-- PC: (0x410712) 

-- PC: (0x410712) 

-- PC: (0x410712) 

-- PC: (0x410715) 

-- PC: (0x410715) 

-- PC: (0x410715) 

-- PC: (0x410715) 

-- PC: (0x410715) 

-- PC: (0x410715) 

-- PC: (0x410715) 

-- PC: (0x410715) 

-- PC: (0x410715) 

-- PC: (0x410715) 

-- PC: (0x410715) 

-- PC: (0x410715) 

-- PC: (0x410715) 

-- PC: (0x410715) 

-- PC: (0x41071b) 

-- PC: (0x410715) 

-- PC: (0x41071b) 

-- PC: (0x410715) 

-- PC: (0x41071b) 

-- PC: (0x41071b) 

-- PC: (0x41071b) 

-- PC: (0x41071b) 

-- PC: (0x41071b) 

-- PC: (0x41071b) 

-- PC: (0x41071b) 

-- PC: (0x41071b) 

-- PC: (0x41071b) 

-- PC: (0x41071b) 

-- PC: (0x41071b) 

-- PC: (0x41071b) 

-- PC: (0x41071d) 

-- PC: (0x41071b) 

-- PC: (0x41071d) 

-- PC: (0x41071b) 

-- PC: (0x41071d) 

-- PC: (0x41071d) 

-- PC: (0x41071d) 

-- PC: (0x4154f4) 

-- PC: (0x4154f4) 

-- PC: (0x41071d) 

-- PC: (0x41071d) 

-- PC: (0x41071d) 

-- PC: (0x41071d) 

-- PC: (0x41071d) 

-- PC: (0x41071d) 

-- PC: (0x41071d) 

-- PC: (0x41071d) 

-- PC: (0x41071d) 

-- PC: (0x41071d) 

-- PC: (0x41071d) 

-- PC: (0x41071d) 

-- PC: (0x410724) 

-- PC: (0x410724) 

-- PC: (0x410724) 

-- PC: (0x410724) 

-- PC: (0x410724) 

-- PC: (0x410724) 

-- PC: (0x410727) 

-- PC: (0x410727) 

-- PC: (0x410727) 

-- PC: (0x410727) 

-- PC: (0x410727) 

-- PC: (0x410727) 

-- PC: (0x410727) 

-- PC: (0x410727) 

-- PC: (0x410727) 

-- PC: (0x410727) 

-- PC: (0x410727) 

-- PC: (0x410727) 

-- PC: (0x410727) 

-- PC: (0x410727) 

-- PC: (0x410729) 

-- PC: (0x410727) 

-- PC: (0x410729) 

-- PC: (0x410727) 

-- PC: (0x410729) 

-- PC: (0x410729) 

-- PC: (0x410729) 

-- PC: (0x410729) 

-- PC: (0x410729) 

-- PC: (0x410729) 

-- PC: (0x410730) 

-- PC: (0x410730) 

-- PC: (0x410730) 

-- PC: (0x4154f5) 

-- PC: (0x4154f6) 

-- PC: (0x4154f8) 

-- Tick (137101000) -- ISN: (89439) : L from (0x7fffffffeca0) -- of Size = (8)-- PC: (0x4154f4) 

 -- vaddr (0x7fffffffeca0) -- paddr (0xc5ca0) 

-- PC: (0x4154f5) 

-- PC: (0x410730) 

-- PC: (0x410730) 

-- PC: (0x410730) 

-- PC: (0x410730) 

-- PC: (0x410730) 

-- PC: (0x410730) 

-- PC: (0x410730) 

-- PC: (0x410730) 

-- PC: (0x410730) 

-- PC: (0x410730) 

-- PC: (0x410730) 

-- PC: (0x410734) 

-- PC: (0x410734) 

-- PC: (0x410734) 

-- PC: (0x410734) 

-- PC: (0x410734) 

-- PC: (0x410734) 

-- PC: (0x410734) 

-- PC: (0x410734) 

-- PC: (0x410734) 

-- PC: (0x410734) 

-- PC: (0x410734) 

-- PC: (0x410734) 

-- PC: (0x410736) 

-- PC: (0x410734) 

-- PC: (0x410736) 

-- PC: (0x410734) 

-- PC: (0x410736) 

-- PC: (0x410736) 

-- PC: (0x410736) 

-- PC: (0x410736) 

-- PC: (0x410736) 

-- PC: (0x410736) 

-- PC: (0x410736) 

-- PC: (0x410736) 

-- PC: (0x410736) 

-- PC: (0x410736) 

-- Tick (137101500) -- ISN: (89442) : L from (0x7fffffffeca8) -- of Size = (8)-- PC: (0x4154f5) 

 -- vaddr (0x7fffffffeca8) -- paddr (0xc5ca8) 

-- PC: (0x4154f6) 

-- PC: (0x410736) 

-- PC: (0x410736) 

-- PC: (0x410736) 

-- PC: (0x410736) 

-- PC: (0x41073e) 

-- PC: (0x41073e) 

-- PC: (0x41073e) 

-- PC: (0x41073e) 

-- PC: (0x41073e) 

-- PC: (0x41073e) 

-- PC: (0x41073e) 

-- PC: (0x41073e) 

-- PC: (0x41073e) 

-- ReadReq [10740:1077f] IF Hit -- Blk -> state: 7 (E) valid: 1 writable: 1 readable: 1 dirty: 0 | tag: 0x41 set: 0xd way: 0 Latency: 2 

-- Tick (137102000) -- ISN: (89445) : L from (0x7fffffffecb0) -- of Size = (8)-- PC: (0x4154f6) 

 -- vaddr (0x7fffffffecb0) -- paddr (0xc5cb0) 

-- PC: (0x4154f8) 

-- PC: (0x4154ea) 

-- PC: (0x415580) 

-- PC: (0x415580) 

-- PC: (0x415580) 

-- PC: (0x415580) 

-- Sqsh -> ISN (89436)

-- PC: (0x4154d1) 

-- PC: (0x415580) 

-- PC: (0x415580) 

-- ReadReq [15580:155bf] IF Miss --  Latency: 502 

-- Tick (137103000) -- ISN: (89419) : S -> (0x61) at (0x6b9388) -- Size = (8)-- PC: (0x4154d1) 

 -- vaddr (0x6b9388) -- paddr (0xb9388) 

-- PC: (0x4165dc) 

-- PC: (0x4165dc) 

-- PC: (0x4165e0) 

-- PC: (0x4165e0) 

-- PC: (0x4165e0) 

-- PC: (0x4165e0) 

-- PC: (0x4165e0) 

-- PC: (0x4165e0) 

-- PC: (0x4165e4) 

-- PC: (0x4165e4) 

-- PC: (0x4165e4) 

-- PC: (0x4165e4) 

-- PC: (0x4165e4) 

-- PC: (0x4165e4) 

-- PC: (0x4165e4) 

-- PC: (0x4165e4) 

-- PC: (0x4165e5) 

-- PC: (0x4165e5) 

-- PC: (0x4165e5) 

-- PC: (0x4165e5) 

-- PC: (0x415490) 

-- PC: (0x415490) 

-- PC: (0x415490) 

-- PC: (0x415490) 

-- PC: (0x415492) 

[...]

-- PC: (0x400d56) 

-- PC: (0x400d56) 

-- PC: (0x400d56) 

-- PC: (0x400d56) 

-- PC: (0x400d56) 

-- PC: (0x400d56) 

-- PC: (0x400d84) 

-- PC: (0x400d84) 

-- PC: (0x400d84) 

-- PC: (0x400d56) 

-- PC: (0x400d56) 

-- PC: (0x400d56) 

-- PC: (0x400d56) 

-- PC: (0x400d56) 

-- PC: (0x400d56) 

-- PC: (0x400b4d) 

-- PC: (0x400b4d) 

-- PC: (0x400b4d) 

-- PC: (0x400b4d) 

-- PC: (0x400b4d) 

-- PC: (0x400b4d) 

-- PC: (0x400b4e) 

-- PC: (0x400b4e) 

-- PC: (0x400b4e) 

-- PC: (0x400b4e) 

-- PC: (0x400b51) 

-- PC: (0x400b51) 

-- PC: (0x400b51) 

-- PC: (0x400b51) 

-- PC: (0x400b54) 

-- PC: (0x400b54) 

-- PC: (0x400b54) 

-- PC: (0x400b54) 

-- PC: (0x400d84) 

-- PC: (0x400d84) 

-- PC: (0x400d84) 

-- WriteReq [bc424:bc427] Miss --  Latency: 502 

-- PC: (0x400d84) 

-- PC: (0x400d84) 

-- PC: (0x400d84) 

-- PC: (0x400d84) 

-- PC: (0x400d84) 

-- PC: (0x400d84) 

-- PC: (0x400d84) 

-- PC: (0x400d84) 

-- PC: (0x400d84) 

-- PC: (0x400d84) 

-- PC: (0x400d84) 

-- PC: (0x400d84) 

-- PC: (0x400d84) 

-- PC: (0x400d84) 

-- PC: (0x400d84) 

-- PC: (0x400d84) 

-- PC: (0x400d84) 

-- PC: (0x400d84) 

-- PC: (0x400d84) 

-- PC: (0x400d84) 

-- PC: (0x400d84) 

-- PC: (0x400b54) 

-- PC: (0x400b54) 

-- PC: (0x400b5a) 

-- PC: (0x400b5a) 

-- PC: (0x400b5a) 

-- PC: (0x400b5a) 

-- PC: (0x400d84) 

-- PC: (0x400d84) 

-- PC: (0x400d84) 

-- PC: (0x400b83) 

-- PC: (0x400b5d) 

-- PC: (0x400b8d) 

-- PC: (0x400b8d) 

-- PC: (0x400b8d) 

-- PC: (0x400b8d) 

-- Sqsh -> ISN (90637)

-- PC: (0x400b8d) 

-- PC: (0x400b8d) 

-- ReadReq [b80:bbf] IF Hit -- Blk -> state: 7 (E) valid: 1 writable: 1 readable: 1 dirty: 0 | tag: 0x2 set: 0xe way: 0 Latency: 2 

-- PC: (0x400b5a) 

-- PC: (0x400b5a) 

-- PC: (0x400b5d) 

-- PC: (0x400b5d) 

-- PC: (0x400b5d) 

-- PC: (0x400b5d) 

-- PC: (0x400b5d) 

-- PC: (0x400b5d) 

-- PC: (0x400b5d) 

-- PC: (0x400b5d) 

-- PC: (0x400b8d) 

-- PC: (0x400b8d) 

-- PC: (0x400b8d) 

-- PC: (0x400b8d) 

-- PC: (0x400b8d) 

-- PC: (0x400b8d) 

-- PC: (0x400b8d) 

-- PC: (0x400b8e) 

-- PC: (0x400b8e) 

-- PC: (0x400b8e) 

-- PC: (0x400b8e) 

-- PC: (0x400b8e) 

-- PC: (0x400b8e) 

-- PC: (0x400b8e) 

-- PC: (0x400b8e) 

-- PC: (0x400b8e) 

-- PC: (0x400b8e) 

-- PC: (0x400b8f) 

-- PC: (0x400b8f) 

-- PC: (0x400b8f) 

-- PC: (0x400b8f) 

-- PC: (0x400b8f) 

-- PC: (0x400b8f) 

-- PC: (0x400b8f) 

-- PC: (0x400b8f) 

-- PC: (0x400b8f) 

-- PC: (0x400b8f) 

-- PC: (0x400b8f) 

-- PC: (0x400d5b) 

-- PC: (0x400b8f) 

-- PC: (0x400d5b) 

-- PC: (0x400d5b) 

-- PC: (0x400d5b) 

-- PC: (0x400d5b) 

-- PC: (0x400d5b) 

-- ReadReq [d40:d7f] IF Hit -- Blk -> state: 7 (E) valid: 1 writable: 1 readable: 1 dirty: 0 | tag: 0x3 set: 0x5 way: 0 Latency: 2 

-- PC: (0x400d5b) 

-- PC: (0x400d5b) 

-- PC: (0x400d5b) 

-- PC: (0x400d5b) 

-- PC: (0x400d5b) 

-- PC: (0x400d5e) 

-- PC: (0x400d5e) 

-- PC: (0x400d5e) 

-- PC: (0x400d5e) 

-- PC: (0x400d5e) 

-- PC: (0x400d5e) 

-- PC: (0x400d5e) 

-- PC: (0x400d5e) 

-- PC: (0x400d61) 

-- PC: (0x400d61) 

-- PC: (0x400d61) 

-- PC: (0x400d61) 

-- PC: (0x400d61) 

-- PC: (0x400d61) 

-- PC: (0x400d66) 

-- PC: (0x400d66) 

-- PC: (0x400d66) 

-- PC: (0x400d66) 

-- PC: (0x400d66) 

-- PC: (0x400d66) 

-- PC: (0x400d66) 

-- PC: (0x400d66) 

-- PC: (0x400d66) 

-- PC: (0x400d66) 

-- PC: (0x400d66) 

-- PC: (0x400d66) 

-- PC: (0x400d66) 

-- PC: (0x400d66) 

-- PC: (0x400d66) 

-- PC: (0x400d66) 

-- PC: (0x400d66) 

-- PC: (0x400d66) 

-- PC: (0x400d6b) 

-- PC: (0x400d66) 

-- PC: (0x400d6b) 

-- PC: (0x400d66) 

-- PC: (0x400d6b) 

-- PC: (0x400d6b) 

-- PC: (0x400d6b) 

-- PC: (0x400d6b) 

-- PC: (0x400d6b) 

-- PC: (0x400d6b) 

-- PC: (0x400d6b) 

-- PC: (0x400d6b) 

-- PC: (0x400d6b) 

-- PC: (0x400d70) 

-- PC: (0x400d70) 

-- PC: (0x400d70) 

-- PC: (0x400d70) 

-- PC: (0x400d70) 

-- PC: (0x400d74) 

-- PC: (0x400d74) 

-- PC: (0x400d74) 

-- PC: (0x400d74) 

-- PC: (0x400d74) 

-- PC: (0x400d74) 

-- PC: (0x400d74) 

-- PC: (0x400d74) 

-- PC: (0x400d74) 

-- PC: (0x400d74) 

-- PC: (0x400d7d) 

-- PC: (0x400d7d) 

-- PC: (0x400d7d) 

-- PC: (0x400d7d) 

-- PC: (0x400d7d) 

-- PC: (0x400d7d) 

-- PC: (0x400d7d) 

-- PC: (0x400d7d) 

-- PC: (0x400d7d) 

-- PC: (0x400d7d) 

-- PC: (0x400d7d) 

-- PC: (0x400d7d) 

-- PC: (0x400d7f) 

-- PC: (0x400d7d) 

-- PC: (0x400d7f) 

-- PC: (0x400d7d) 

-- PC: (0x400d7f) 

-- PC: (0x400d7f) 

-- PC: (0x400d7f) 

-- PC: (0x400d7f) 

-- PC: (0x400d7f) 

-- PC: (0x400d7f) 

-- PC: (0x400d7f) 

-- PC: (0x400d7f) 

-- PC: (0x400d7f) 

-- ReadReq [d80:dbf] IF Hit -- Blk -> state: 7 (E) valid: 1 writable: 1 readable: 1 dirty: 0 | tag: 0x3 set: 0x6 way: 0 Latency: 2 

-- PC: (0x400d7f) 

-- PC: (0x400d7f) 

-- PC: (0x400d7f) 

-- PC: (0x400d7f) 

-- PC: (0x400d7f) 

-- PC: (0x400d7f) 

-- PC: (0x400d7f) 

-- PC: (0x400d7f) 

-- PC: (0x400d7f) 

-- PC: (0x400d7f) 

-- PC: (0x400d7f) 

-- PC: (0x400d7f) 

-- PC: (0x400d7f) 

-- PC: (0x400d7f) 

-- PC: (0x400d84) 

-- PC: (0x400d7f) 

-- PC: (0x400d84) 

-- PC: (0x400d7f) 

-- PC: (0x400d84) 

-- PC: (0x400d84) 

-- PC: (0x400d84) 

-- PC: (0x400d84) 

-- PC: (0x400d84) 

-- PC: (0x400d84) 

-- PC: (0x400d84) 

-- PC: (0x400d84) 

-- PC: (0x400d84) 

-- PC: (0x400d84) 

-- PC: (0x400d84) 

-- PC: (0x400d84) 

-- PC: (0x400b8e) 

-- PC: (0x400b8f) 

-- PC: (0x400b8e) 

-- PC: (0x400d84) 

-- PC: (0x400d84) 

-- PC: (0x400d84) 

-- PC: (0x400d84) 

-- PC: (0x400d85) 

-- PC: (0x400d85) 

-- PC: (0x400d85) 

-- PC: (0x400d85) 

-- PC: (0x400d85) 

-- PC: (0x400d85) 

-- PC: (0x400d85) 

-- PC: (0x400d85) 

-- PC: (0x400d85) 

-- PC: (0x400d85) 

-- PC: (0x400d85) 

-- PC: (0x400d84) 

-- PC: (0x400d85) 

-- PC: (0x400d84) 

-- PC: (0x400d84) 

-- PC: (0x400d84) 

-- Tick (138516500) -- ISN: (90715) : L from (0x7fffffffece0) -- of Size = (8)-- PC: (0x400b8e) 

 -- vaddr (0x7fffffffece0) -- paddr (0xc5ce0) 

-- PC: (0x400b8f) 

-- PC: (0x400d84) 

-- PC: (0x400d84) 

-- PC: (0x400d84) 

-- PC: (0x400d84) 

-- PC: (0x400d84) 

-- PC: (0x400d84) 

-- PC: (0x400d84) 

-- PC: (0x400d84) 

-- PC: (0x400d84) 

-- PC: (0x400d84) 

-- PC: (0x400d84) 

-- PC: (0x400d84) 

-- PC: (0x400d85) 

-- PC: (0x400d85) 

-- PC: (0x400d85) 

-- PC: (0x400d85) 

-- PC: (0x400d85) 

-- PC: (0x400d85) 

-- PC: (0x400d85) 

-- PC: (0x400d85) 

-- PC: (0x400d85) 

-- PC: (0x400d85) 

-- PC: (0x400d85) 

-- PC: (0x400d6b) 

-- PC: (0x400d85) 

-- PC: (0x400d6b) 

-- PC: (0x400d6b) 

-- PC: (0x400d6b) 

-- PC: (0x400d6b) 

-- PC: (0x400d6b) 

-- ReadReq [d40:d7f] IF Hit -- Blk -> state: 7 (E) valid: 1 writable: 1 readable: 1 dirty: 0 | tag: 0x3 set: 0x5 way: 0 Latency: 2 

-- Tick (138517000) -- ISN: (90718) : L from (0x7fffffffece8) -- of Size = (8)-- PC: (0x400b8f) 

 -- vaddr (0x7fffffffece8) -- paddr (0xc5ce8) 

-- PC: (0x400b8d) 

-- PC: (0x400b8d) 

-- PC: (0x400b8e) 

-- PC: (0x400b8e) 

-- PC: (0x400d6b) 

-- PC: (0x400d6b) 

-- PC: (0x400d6b) 

-- PC: (0x400d6b) 

-- PC: (0x400d6b) 

-- PC: (0x400d70) 

-- PC: (0x400d70) 

-- PC: (0x400d70) 

-- PC: (0x400d70) 

-- PC: (0x400d70) 

-- PC: (0x400d74) 

-- PC: (0x400d74) 

-- PC: (0x400d74) 

-- PC: (0x400d74) 

-- PC: (0x400d74) 

-- PC: (0x400d74) 

-- PC: (0x400d74) 

-- PC: (0x400d74) 

-- PC: (0x400d74) 

-- PC: (0x400d74) 

-- PC: (0x400d7d) 

-- PC: (0x400d7d) 

-- PC: (0x400d7d) 

-- PC: (0x400d7d) 

-- PC: (0x400d7d) 

-- PC: (0x400d7d) 

-- PC: (0x400d7d) 

-- PC: (0x400d7d) 

-- PC: (0x400d7d) 

-- PC: (0x400d7d) 

-- PC: (0x400d7d) 

-- PC: (0x400d7d) 

-- PC: (0x400d7f) 

-- PC: (0x400d7d) 

-- PC: (0x400d7f) 

-- PC: (0x400d7d) 

-- PC: (0x400d7f) 

-- PC: (0x400d7f) 

-- PC: (0x400d7f) 

-- PC: (0x400d7f) 

-- PC: (0x400d7f) 

-- PC: (0x400d7f) 

-- PC: (0x400d7f) 

-- PC: (0x400d7f) 

-- PC: (0x400d7f) 

-- ReadReq [d80:dbf] IF Hit -- Blk -> state: 7 (E) valid: 1 writable: 1 readable: 1 dirty: 0 | tag: 0x3 set: 0x6 way: 0 Latency: 2 

-- PC: (0x400b8e) 

-- PC: (0x400b8e) 

-- PC: (0x400b8e) 

-- PC: (0x400b8e) 

-- PC: (0x400b8e) 

-- PC: (0x400b8e) 

-- PC: (0x400b8f) 

-- PC: (0x400b8f) 

-- PC: (0x400b8f) 

-- PC: (0x400b8f) 

-- PC: (0x400b8f) 

-- PC: (0x400b8f) 

-- PC: (0x400d7f) 

-- PC: (0x400d7f) 

-- PC: (0x400d7f) 

-- PC: (0x400d7f) 

-- PC: (0x400d7f) 

-- PC: (0x400d7f) 

-- PC: (0x400d7f) 

-- PC: (0x400d7f) 

-- PC: (0x400d7f) 

-- PC: (0x400d7f) 

-- PC: (0x400d7f) 

-- PC: (0x400d7f) 

-- PC: (0x400d7f) 

-- PC: (0x400d7f) 

-- PC: (0x400d84) 

-- PC: (0x400d7f) 

-- PC: (0x400d84) 

-- PC: (0x400d7f) 

-- PC: (0x400d84) 

-- PC: (0x400d84) 

-- PC: (0x400d84) 

-- PC: (0x400d84) 

-- PC: (0x400d84) 

-- PC: (0x400d84) 

-- PC: (0x400d84) 

-- PC: (0x400d84) 

-- PC: (0x400d84) 

-- PC: (0x400d84) 

-- PC: (0x400d84) 

-- PC: (0x400d84) 

-- PC: (0x400b8f) 

-- PC: (0x400b8f) 

-- PC: (0x400d5b) 

-- PC: (0x400d5b) 

-- PC: (0x400d5b) 

-- PC: (0x400d5b) 

-- PC: (0x400d5e) 

-- PC: (0x400d5e) 

-- PC: (0x400d84) 

-- PC: (0x400d84) 

-- PC: (0x400d84) 

-- PC: (0x400d84) 

-- PC: (0x400d85) 

-- PC: (0x400d85) 

-- PC: (0x400d85) 

-- PC: (0x400d85) 

-- PC: (0x400d85) 

-- PC: (0x400d85) 

-- PC: (0x400d85) 

-- PC: (0x400d85) 

-- PC: (0x400d85) 

-- PC: (0x400d85) 

-- PC: (0x400d85) 

-- PC: (0x400d84) 

-- PC: (0x400d85) 

-- PC: (0x400d84) 

-- PC: (0x400d84) 

-- PC: (0x400d84) 

-- PC: (0x400d84) 

-- PC: (0x400d84) 

-- PC: (0x400d84) 

-- PC: (0x400d84) 

-- PC: (0x400d84) 

-- PC: (0x400d84) 

-- PC: (0x400d84) 

-- PC: (0x400d84) 

-- PC: (0x400d84) 

-- PC: (0x400d84) 

-- PC: (0x400d84) 

-- PC: (0x400d84) 

-- PC: (0x400d85) 

-- PC: (0x400d85) 

-- PC: (0x400d85) 

-- PC: (0x400d85) 

-- PC: (0x400d85) 

-- PC: (0x400d85) 

-- PC: (0x400d85) 

-- PC: (0x400d85) 

-- PC: (0x400d85) 

-- PC: (0x400d85) 

-- PC: (0x400d85) 

-- PC: (0x400d85) 

-- PC: (0x400d85) 

-- PC: (0x400d85) 

-- PC: (0x400d85) 

-- PC: (0x400d85) 

-- PC: (0x400d85) 

-- PC: (0x400d85) 

-- PC: (0x400d85) 

-- PC: (0x400d85) 

-- PC: (0x400d85) 

-- PC: (0x400d85) 

-- PC: (0x400d85) 

-- PC: (0x400d85) 

-- PC: (0x400d85) 

-- PC: (0x400d85) 

-- PC: (0x400d85) 

-- PC: (0x400d85) 

-- PC: (0x400d85) 

-- PC: (0x400d85) 

-- PC: (0x400d85) 

-- PC: (0x400d85) 

-- PC: (0x400d85) 

-- PC: (0x400d85) 

-- PC: (0x400d85) 

-- PC: (0x400d85) 

-- PC: (0x400d85) 

-- PC: (0x400d85) 

-- PC: (0x400d85) 

-- PC: (0x400d85) 

-- PC: (0x400d85) 

-- PC: (0x400d85) 

-- PC: (0x400d85) 

-- PC: (0x400d85) 

-- PC: (0x400d85) 

-- PC: (0x400d85) 

-- PC: (0x400d85) 

-- PC: (0x400d85) 

-- PC: (0x400d85) 

-- PC: (0x400d85) 

-- PC: (0x400d85) 

-- PC: (0x400d85) 

-- PC: (0x400d85) 

-- PC: (0x400d85) 

-- PC: (0x400d85) 

-- PC: (0x400d85) 

-- PC: (0x400d85) 

-- PC: (0x400d85) 

-- PC: (0x400d85) 

-- PC: (0x400d85) 

-- PC: (0x400d85) 

-- PC: (0x400d85) 

-- PC: (0x400d85) 

-- PC: (0x400d85) 

-- PC: (0x400d85) 

-- PC: (0x400d85) 

-- PC: (0x400d85) 

-- PC: (0x400d85) 

-- PC: (0x400d85) 

-- PC: (0x400d85) 

-- PC: (0x400d85) 

-- PC: (0x400d85) 

-- PC: (0x400d85) 

-- PC: (0x400d85) 

-- PC: (0x400d85) 

-- PC: (0x400d85) 

-- WriteReq [bc424:bc427] Hit -- Blk -> state: f (M) valid: 1 writable: 1 readable: 1 dirty: 1 | tag: 0x2f1 set: 0 way: 0 Latency: 2 

-- PC: (0x400d85) 

-- PC: (0x400d85) 

-- PC: (0x400d85) 

-- PC: (0x400d85) 

-- PC: (0x400d85) 

-- PC: (0x400d85) 

-- WriteReq [c5ce8:c5cef] Miss --  Latency: 502 

-- PC: (0x400d85) 

-- PC: (0x400d85) 

-- PC: (0x400d85) 

-- PC: (0x400d85) 

-- PC: (0x400d85) 

-- PC: (0x400d85) 

-- PC: (0x400d85) 

-- PC: (0x400d85) 

-- PC: (0x400d85) 

-- PC: (0x400d85) 

-- PC: (0x400d85) 

-- PC: (0x400d85) 

-- PC: (0x400d85) 

-- PC: (0x400d85) 

-- PC: (0x400d85) 

-- PC: (0x400d85) 

-- PC: (0x400d85) 

-- PC: (0x400d85) 

-- PC: (0x400d85) 

-- PC: (0x400d85) 

-- PC: (0x400d85) 

-- PC: (0x400d85) 

-- PC: (0x400d85) 

-- PC: (0x400d85) 

-- PC: (0x400d85) 

-- PC: (0x400d85) 

-- PC: (0x400d85) 

-- PC: (0x400d85) 

-- PC: (0x400d85) 

-- PC: (0x400d85) 

-- PC: (0x400d85) 

-- PC: (0x400d85) 

-- PC: (0x400d85) 

-- PC: (0x400d85) 

-- PC: (0x400d85) 

-- PC: (0x400d85) 

-- PC: (0x400d85) 

-- PC: (0x400d85) 

-- PC: (0x400d85) 

-- PC: (0x400d85) 

-- PC: (0x400d85) 

-- PC: (0x400d85) 

-- PC: (0x400d85) 

-- PC: (0x400d85) 

-- PC: (0x400d85) 

-- PC: (0x400d85) 

-- PC: (0x400d85) 

-- PC: (0x400d85) 

-- PC: (0x400d85) 

-- PC: (0x400d85) 

-- PC: (0x400d85) 

-- PC: (0x400d85) 

-- PC: (0x400d85) 

-- PC: (0x400d85) 

-- PC: (0x400d85) 

-- PC: (0x400d85) 

-- PC: (0x400d85) 

-- PC: (0x400d85) 

-- PC: (0x400d85) 

-- PC: (0x400d85) 

-- PC: (0x400d85) 

-- PC: (0x400d85) 

-- PC: (0x400d85) 

-- PC: (0x400d85) 

-- PC: (0x400d85) 

-- PC: (0x400d85) 

-- PC: (0x400d85) 

-- PC: (0x400d85) 

-- PC: (0x400d85) 

-- PC: (0x400d85) 

-- PC: (0x400d85) 

-- PC: (0x400d85) 

-- PC: (0x400d85) 

-- PC: (0x400d85) 

-- PC: (0x400d85) 

-- PC: (0x400d85) 

-- PC: (0x400d85) 

-- PC: (0x400d85) 

-- PC: (0x400d85) 

-- PC: (0x400d85) 

-- PC: (0x400d85) 

-- PC: (0x400d85) 

-- PC: (0x400d85) 

-- PC: (0x400d85) 

-- PC: (0x400d85) 

-- PC: (0x400d85) 

-- PC: (0x400d85) 

-- PC: (0x400d85) 

-- PC: (0x400d85) 

-- PC: (0x400d85) 

-- PC: (0x400d85) 

-- PC: (0x400d85) 

-- PC: (0x400d85) 

-- PC: (0x400d85) 

-- PC: (0x400d85) 

-- PC: (0x400d85) 

-- PC: (0x400d85) 

-- PC: (0x400d85) 

-- PC: (0x400d85) 

-- PC: (0x400d85) 

-- PC: (0x400d85) 

-- PC: (0x400d85) 

-- PC: (0x400d85) 

-- PC: (0x400d85) 

-- PC: (0x400d85) 

-- PC: (0x400d85) 

-- PC: (0x400d85) 

-- PC: (0x400d85) 

-- PC: (0x400d85) 

-- PC: (0x400d85) 

-- PC: (0x400d85) 

-- PC: (0x400d85) 

-- PC: (0x400d85) 

-- PC: (0x400d85) 

-- PC: (0x400d85) 

-- PC: (0x400d85) 

-- PC: (0x400d85) 

-- PC: (0x400d85) 

-- PC: (0x400d85) 

-- PC: (0x400d85) 

-- PC: (0x400d85) 

-- PC: (0x400d85) 

-- PC: (0x400d85) 

-- PC: (0x400d85) 

-- PC: (0x400d85) 

-- PC: (0x400d85) 

-- PC: (0x400d85) 

-- PC: (0x400d85) 

-- PC: (0x400d85) 

-- PC: (0x400d85) 

-- PC: (0x400d85) 

-- PC: (0x400d85) 

-- WriteReq [c5ce0:c5ce7] Hit -- Blk -> state: f (M) valid: 1 writable: 1 readable: 1 dirty: 1 | tag: 0x317 set: 0x3 way: 0 Latency: 2 

-- PC: (0x400d85) 

-- PC: (0x400d85) 

-- PC: (0x400d85) 

-- PC: (0x400d85) 

-- PC: (0x400d85) 

-- PC: (0x400d85) 

-- WriteReq [c5cdc:c5cdf] Hit -- Blk -> state: f (M) valid: 1 writable: 1 readable: 1 dirty: 1 | tag: 0x317 set: 0x3 way: 0 Latency: 2 

-- PC: (0x400d85) 

-- PC: (0x400d85) 

-- PC: (0x400d85) 

-- PC: (0x400d85) 

-- PC: (0x400d85) 

-- PC: (0x400d85) 

-- PC: (0x400d85) 

-- PC: (0x400d85) 

-- PC: (0x400d85) 

-- PC: (0x400d85) 

-- PC: (0x400d85) 

-- PC: (0x400d85) 

-- PC: (0x400d85) 

-- PC: (0x400d85) 

-- PC: (0x400d85) 

-- PC: (0x400d66) 

-- PC: (0x400d85) 

-- PC: (0x400d85) 

-- PC: (0x400d85) 

-- PC: (0x400d85) 

-- PC: (0x400d85) 

-- PC: (0x400d85) 

-- PC: (0x400d85) 

-- PC: (0x400d85) 

-- PC: (0x400d85) 

-- PC: (0x400d85) 

-- PC: (0x400d85) 

-- PC: (0x401389) 

-- PC: (0x400d85) 

-- PC: (0x401389) 

-- PC: (0x401389) 

-- PC: (0x401389) 

-- PC: (0x401389) 

-- PC: (0x401389) 

-- ReadReq [1380:13bf] IF Miss --  Latency: 502 

-- PC: (0x400d7f) 

-- PC: (0x400d66) 

-- PC: (0x400d70) 

-- PC: (0x400d74) 

-- PC: (0x400d66) 

-- PC: (0x400dc7) 

-- PC: (0x400dc7) 

-- PC: (0x400dc7) 

-- PC: (0x400dc7) 

-- Sqsh -> ISN (90728)

-- Tick (138559500) -- ISN: (90726) : S -> (0x6b) at (0x7fffffffece8) -- Size = (8)-- PC: (0x400d66) 

 -- vaddr (0x7fffffffece8) -- paddr (0xc5ce8) 

-- PC: (0x400dc7) 

-- PC: (0x400dc7) 

-- ReadReq [dc0:dff] IF Miss --  Latency: 502 

-- PC: (0x400d5e) 

-- PC: (0x400d5e) 

-- PC: (0x400d61) 

-- PC: (0x400d61) 

-- PC: (0x400d61) 

-- PC: (0x400d61) 

-- PC: (0x400d66) 

-- PC: (0x400d66) 

-- PC: (0x400d66) 

-- PC: (0x400d66) 

-- PC: (0x400d66) 

-- PC: (0x400d66) 

-- PC: (0x400d66) 

-- PC: (0x400d66) 

-- PC: (0x400d66) 

-- PC: (0x400d66) 

-- PC: (0x400d66) 

-- PC: (0x400d66) 

-- PC: (0x400dc7) 

-- PC: (0x400dc7) 

-- WriteReq [c5ce8:c5cef] Hit -- Blk -> state: f (M) valid: 1 writable: 1 readable: 1 dirty: 1 | tag: 0x317 set: 0x3 way: 0 Latency: 2 

-- PC: (0x400dc7) 

-- PC: (0x400dc7) 

-- PC: (0x400dc7) 

-- PC: (0x400dc7) 

-- PC: (0x400dc7) 

-- PC: (0x400dc7) 

-- PC: (0x400dc7) 

-- PC: (0x400dcb) 

-- PC: (0x400dcb) 

-- PC: (0x400dcb) 

-- PC: (0x400dcb) 

-- PC: (0x400dcb) 

-- PC: (0x400dcb) 

-- PC: (0x400dcb) 

-- PC: (0x400dcb) 

-- PC: (0x400dcb) 

-- PC: (0x400dcb) 

-- PC: (0x400dcb) 

-- PC: (0x400d6b) 

-- PC: (0x400dcb) 

-- PC: (0x400d6b) 

-- PC: (0x400d6b) 

-- PC: (0x400d6b) 

-- PC: (0x400d6b) 

-- PC: (0x400d6b) 

-- ReadReq [d40:d7f] IF Hit -- Blk -> state: 7 (E) valid: 1 writable: 1 readable: 1 dirty: 0 | tag: 0x3 set: 0x5 way: 0 Latency: 2 

-- PC: (0x400d6b) 

-- PC: (0x400d6b) 

-- PC: (0x400d6b) 

-- PC: (0x400d6b) 

-- PC: (0x400d6b) 

-- PC: (0x400d70) 

-- PC: (0x400d70) 

-- PC: (0x400d70) 

-- PC: (0x400d70) 

-- PC: (0x400d70) 

-- PC: (0x400d74) 

-- PC: (0x400d74) 

-- PC: (0x400d74) 

-- PC: (0x400d74) 

-- PC: (0x400d74) 

-- PC: (0x400d74) 

-- PC: (0x400d74) 

-- PC: (0x400d74) 

-- PC: (0x400d74) 

-- PC: (0x400d74) 

-- PC: (0x400d7d) 

-- PC: (0x400d7d) 

-- PC: (0x400d7d) 

-- PC: (0x400d7d) 

-- PC: (0x400d7d) 

-- PC: (0x400d7d) 

-- PC: (0x400d7d) 

-- PC: (0x400d7d) 

-- PC: (0x400d7d) 

-- PC: (0x400d7d) 

-- PC: (0x400d7d) 

-- PC: (0x400d7d) 

-- PC: (0x400d7f) 

-- PC: (0x400d7d) 

-- PC: (0x400d7f) 

-- PC: (0x400d7d) 

-- PC: (0x400d7f) 

-- PC: (0x400d7f) 

-- PC: (0x400d7f) 

-- PC: (0x400d7f) 

-- PC: (0x400d7f) 

-- PC: (0x400d7f) 

-- PC: (0x400d7f) 

-- PC: (0x400d7f) 

-- PC: (0x400d7f) 

-- ReadReq [d80:dbf] IF Hit -- Blk -> state: 7 (E) valid: 1 writable: 1 readable: 1 dirty: 0 | tag: 0x3 set: 0x6 way: 0 Latency: 2 

-- PC: (0x400d7f) 

-- PC: (0x400d7f) 

-- PC: (0x400d7f) 

-- PC: (0x400d7f) 

-- PC: (0x400d7f) 

-- PC: (0x400d7f) 

-- PC: (0x400d7f) 

-- PC: (0x400d7f) 

-- PC: (0x400d7f) 

-- PC: (0x400d7f) 

-- PC: (0x400d7f) 

-- PC: (0x400d7f) 

-- PC: (0x400d7f) 

-- PC: (0x400d7f) 

-- PC: (0x400d84) 

-- PC: (0x400d7f) 

-- PC: (0x400d84) 

-- PC: (0x400d7f) 

-- PC: (0x400d84) 

-- PC: (0x400d84) 

-- PC: (0x400d84) 

-- PC: (0x400d84) 

-- PC: (0x400d84) 

-- PC: (0x400d84) 

-- PC: (0x400d84) 

-- PC: (0x400d84) 

-- PC: (0x400d84) 

-- PC: (0x400d84) 

-- PC: (0x400d84) 

-- PC: (0x400d84) 

-- PC: (0x400dcb) 

-- PC: (0x400dcb) 

-- PC: (0x400d84) 

-- PC: (0x400d84) 

-- PC: (0x400d84) 

-- PC: (0x400d84) 

-- PC: (0x400d85) 

-- PC: (0x400d85) 

-- PC: (0x400d85) 

-- PC: (0x400d85) 

-- PC: (0x400d85) 

-- PC: (0x400d85) 

-- PC: (0x400d85) 

-- PC: (0x400d85) 

-- PC: (0x400d85) 

-- PC: (0x400d85) 

-- PC: (0x400d85) 

-- PC: (0x400d84) 

-- PC: (0x400d85) 

-- PC: (0x400d84) 

-- PC: (0x400d84) 

-- PC: (0x400d84) 

-- Tick (138617500) -- ISN: (90782) : L from (0x7fffffffece8) -- of Size = (8)-- PC: (0x400dcb) 

 -- vaddr (0x7fffffffece8) -- paddr (0xc5ce8) 

-- ReadReq [c5ce8:c5cef] Hit -- Blk -> state: f (M) valid: 1 writable: 1 readable: 1 dirty: 1 | tag: 0x317 set: 0x3 way: 0 Latency: 2 

-- PC: (0x400d84) 

-- PC: (0x400d84) 

-- PC: (0x400d84) 

-- PC: (0x400d84) 

-- PC: (0x400d84) 

-- PC: (0x400d84) 

-- PC: (0x400d84) 

-- PC: (0x400d84) 

-- PC: (0x400d84) 

-- PC: (0x400d84) 

-- PC: (0x400d84) 

-- PC: (0x400d84) 

-- PC: (0x400d85) 

-- PC: (0x400d85) 

-- PC: (0x400d85) 

-- PC: (0x400d85) 

-- PC: (0x400d85) 

-- PC: (0x400d85) 

-- PC: (0x400d85) 

-- PC: (0x400d85) 

-- PC: (0x400d85) 

-- PC: (0x400d85) 

-- PC: (0x400d85) 

-- PC: (0x401389) 

-- PC: (0x400d85) 

-- PC: (0x401389) 

-- PC: (0x401389) 

-- PC: (0x401389) 

-- PC: (0x401389) 

-- PC: (0x401389) 

-- ReadReq [1380:13bf] IF Hit -- Blk -> state: 7 (E) valid: 1 writable: 1 readable: 1 dirty: 0 | tag: 0x4 set: 0xe way: 0 Latency: 2 

-- PC: (0x400d70) 

-- PC: (0x400d74) 

-- PC: (0x400d70) 

-- PC: (0x400d74) 

HERE 2 : enable_memreq_tracing = 0
Exiting @ tick 143594000 because exiting with last active thread context
