gem5 Simulator System.  http://gem5.org
gem5 is copyrighted software; use the --copyright option for details.

gem5 compiled Mar 24 2020 16:53:31
gem5 started Mar 24 2020 17:39:18
gem5 executing on tarund-desk, pid 10882
command line: build/X86/gem5.opt configs/example/se.py --cmd=./tests/my_progs/spectre_test_3_clean --cpu-type=DerivO3CPU --caches --mem-size=4GB --l1d_size=1kB --l1i_size=1kB --l1d_assoc=1 --l1i_assoc=1 --cacheline_size=64

Global frequency set at 1000000000000 ticks per second
**** REAL SIMULATION ****

Address of a1_len = 0x6b90f0 

Address of i = 0x7fffffffed00 

Address of j = 0x7fffffffed04 

Address of x = 0x6bc3a0 

Address of y = 0x6bc428 

Address of z = 0x6bc424 

Address of array1 = 0x6bc440 

Address of array2 = 0x6bc3c0 

Address of array3 = 0x6bc5e0 
HERE 1 : enable_memreq_tracing = 1
-- Tick (139558000) -- ISN: (85112) : S -> (0xd5) at (0x7fffffffecf8) -- Size = (8) -- vaddr (0x7fffffffecf8) -- paddr (0xc5cf8) 

-- Tick (139558000) -- ISN: (85123) : L from (0x7fffffffed00) -- of Size = (4) -- vaddr (0x7fffffffed00) -- paddr (0xc5d00) 

-- ReadReq [c5d00:c5d03] Hit -- Blk --state: 7 (E) valid: 1 writable: 1 readable: 1 dirty: 0 | tag: 0x317 set: 0x4 way: 0 Latency: 2 

-- Tick (139558500) -- ISN: (85117) : S -> (0x1) at (0x6bc5e4) -- Size = (4) -- vaddr (0x6bc5e4) -- paddr (0xbc5e4) 

-- Tick (139558500) -- ISN: (85119) : S -> (0x0) at (0x7fffffffed00) -- Size = (4) -- vaddr (0x7fffffffed00) -- paddr (0xc5d00) 

-- Sqsh -> ISN (85114)

-- ReadReq [dc0:dff] IF Hit -- Blk --state: 7 (E) valid: 1 writable: 1 readable: 1 dirty: 0 | tag: 0x3 set: 0x7 way: 0 Latency: 2 

-- ReadReq [cc0:cff] IF Hit -- Blk --state: 7 (E) valid: 1 writable: 1 readable: 1 dirty: 0 | tag: 0x3 set: 0x3 way: 0 Latency: 2 

-- WriteReq [c5cf8:c5cff] Hit -- Blk --state: f (M) valid: 1 writable: 1 readable: 1 dirty: 1 | tag: 0x317 set: 0x3 way: 0 Latency: 2 

-- ReadReq [d00:d3f] IF Hit -- Blk --state: 7 (E) valid: 1 writable: 1 readable: 1 dirty: 0 | tag: 0x3 set: 0x4 way: 0 Latency: 2 

-- Tick (139563000) -- ISN: (85161) : L from (0x7fffffffecf8) -- of Size = (8) -- vaddr (0x7fffffffecf8) -- paddr (0xc5cf8) 

-- ReadReq [c5cf8:c5cff] Hit -- Blk --state: f (M) valid: 1 writable: 1 readable: 1 dirty: 1 | tag: 0x317 set: 0x3 way: 0 Latency: 2 

-- Tick (139564500) -- ISN: (85166) : S -> (0x1) at (0x6bc5e4) -- Size = (4) -- vaddr (0x6bc5e4) -- paddr (0xbc5e4) 

-- Tick (139564500) -- ISN: (85168) : S -> (0x0) at (0x7fffffffed00) -- Size = (4) -- vaddr (0x7fffffffed00) -- paddr (0xc5d00) 

-- ReadReq [d40:d7f] IF Miss --  Latency: 502 

-- Tick (139565000) -- ISN: (85172) : L from (0x7fffffffed00) -- of Size = (4) -- vaddr (0x7fffffffed00) -- paddr (0xc5d00) 

-- Sqsh -> ISN (85171)

-- ReadReq [d00:d3f] IF Hit -- Blk --state: 7 (E) valid: 1 writable: 1 readable: 1 dirty: 0 | tag: 0x3 set: 0x4 way: 0 Latency: 2 

-- WriteReq [bc5e4:bc5e7] Miss --  Latency: 502 

-- ReadReq [d40:d7f] IF Miss --  Latency: 502 

-- Tick (139569500) -- ISN: (85214) : L from (0x7fffffffed00) -- of Size = (4) -- vaddr (0x7fffffffed00) -- paddr (0xc5d00) 

-- Tick (139570000) -- ISN: (85221) : S -> (0x0) at (0x7fffffffed04) -- Size = (4) -- vaddr (0x7fffffffed04) -- paddr (0xc5d04) 

-- Tick (139571000) -- ISN: (85228) : S -> (0x27) at (0x7fffffffecf8) -- Size = (8) -- vaddr (0x7fffffffecf8) -- paddr (0xc5cf8) 

-- Tick (139571000) -- ISN: (85231) : L from (0x7fffffffed04) -- of Size = (4) -- vaddr (0x7fffffffed04) -- paddr (0xc5d04) 

-- Tick (139571500) -- ISN: (85235) : S -> (0x31) at (0x7fffffffecf0) -- Size = (8) -- vaddr (0x7fffffffecf0) -- paddr (0xc5cf0) 

-- Tick (139571500) -- ISN: (85238) : L from (0x7fffffffed04) -- of Size = (4) -- vaddr (0x7fffffffed04) -- paddr (0xc5d04) 

-- Tick (139571500) -- ISN: (85242) : L from (0x7fffffffed04) -- of Size = (4) -- vaddr (0x7fffffffed04) -- paddr (0xc5d04) 

-- Sqsh -> ISN (85219)

-- ReadReq [cc0:cff] IF Hit -- Blk --state: 7 (E) valid: 1 writable: 1 readable: 1 dirty: 0 | tag: 0x3 set: 0x3 way: 0 Latency: 2 

-- ReadReq [d00:d3f] IF Hit -- Blk --state: 7 (E) valid: 1 writable: 1 readable: 1 dirty: 0 | tag: 0x3 set: 0x4 way: 0 Latency: 2 

-- ReadReq [d40:d7f] IF Miss --  Latency: 502 

-- Tick (139577000) -- ISN: (85245) : L from (0x7fffffffed00) -- of Size = (4) -- vaddr (0x7fffffffed00) -- paddr (0xc5d00) 

-- Tick (139578000) -- ISN: (85252) : L from (0x7fffffffed00) -- of Size = (4) -- vaddr (0x7fffffffed00) -- paddr (0xc5d00) 

-- Tick (139578000) -- ISN: (85256) : L from (0x7fffffffed00) -- of Size = (4) -- vaddr (0x7fffffffed00) -- paddr (0xc5d00) 

-- Tick (139579000) -- ISN: (85251) : S -> (0x0) at (0x6bc440) -- Size = (4) -- vaddr (0x6bc440) -- paddr (0xbc440) 

-- Tick (139579000) -- ISN: (85263) : S -> (0x0) at (0x7fffffffed04) -- Size = (4) -- vaddr (0x7fffffffed04) -- paddr (0xc5d04) 

-- Tick (139579500) -- ISN: (85255) : S -> (0x1) at (0x7fffffffed00) -- Size = (4) -- vaddr (0x7fffffffed00) -- paddr (0xc5d00) 

-- Tick (139579500) -- ISN: (85270) : S -> (0x27) at (0x7fffffffecf8) -- Size = (8) -- vaddr (0x7fffffffecf8) -- paddr (0xc5cf8) 

-- Tick (139579500) -- ISN: (85273) : L from (0x7fffffffed04) -- of Size = (4) -- vaddr (0x7fffffffed04) -- paddr (0xc5d04) 

-- Tick (139580000) -- ISN: (85280) : L from (0x7fffffffed04) -- of Size = (4) -- vaddr (0x7fffffffed04) -- paddr (0xc5d04) 

-- Tick (139580000) -- ISN: (85284) : L from (0x7fffffffed04) -- of Size = (4) -- vaddr (0x7fffffffed04) -- paddr (0xc5d04) 

-- Sqsh -> ISN (85255)

-- ReadReq [d00:d3f] IF Hit -- Blk --state: 7 (E) valid: 1 writable: 1 readable: 1 dirty: 0 | tag: 0x3 set: 0x4 way: 0 Latency: 2 

-- ReadReq [d40:d7f] IF Miss --  Latency: 502 

-- Tick (139585500) -- ISN: (85287) : L from (0x7fffffffed00) -- of Size = (4) -- vaddr (0x7fffffffed00) -- paddr (0xc5d00) 

-- Tick (139586000) -- ISN: (85294) : S -> (0x0) at (0x7fffffffed04) -- Size = (4) -- vaddr (0x7fffffffed04) -- paddr (0xc5d04) 

-- Tick (139587000) -- ISN: (85301) : S -> (0x27) at (0x7fffffffecf8) -- Size = (8) -- vaddr (0x7fffffffecf8) -- paddr (0xc5cf8) 

-- Tick (139587000) -- ISN: (85304) : L from (0x7fffffffed04) -- of Size = (4) -- vaddr (0x7fffffffed04) -- paddr (0xc5d04) 

-- Tick (139587500) -- ISN: (85308) : S -> (0x31) at (0x7fffffffecf0) -- Size = (8) -- vaddr (0x7fffffffecf0) -- paddr (0xc5cf0) 

-- Tick (139587500) -- ISN: (85311) : L from (0x7fffffffed04) -- of Size = (4) -- vaddr (0x7fffffffed04) -- paddr (0xc5d04) 

-- Tick (139587500) -- ISN: (85315) : L from (0x7fffffffed04) -- of Size = (4) -- vaddr (0x7fffffffed04) -- paddr (0xc5d04) 

-- Sqsh -> ISN (85292)

-- ReadReq [cc0:cff] IF Hit -- Blk --state: 7 (E) valid: 1 writable: 1 readable: 1 dirty: 0 | tag: 0x3 set: 0x3 way: 0 Latency: 2 

-- ReadReq [d00:d3f] IF Hit -- Blk --state: 7 (E) valid: 1 writable: 1 readable: 1 dirty: 0 | tag: 0x3 set: 0x4 way: 0 Latency: 2 

-- ReadReq [d40:d7f] IF Miss --  Latency: 502 

-- Tick (139593000) -- ISN: (85318) : L from (0x7fffffffed00) -- of Size = (4) -- vaddr (0x7fffffffed00) -- paddr (0xc5d00) 

-- Tick (139594000) -- ISN: (85325) : L from (0x7fffffffed00) -- of Size = (4) -- vaddr (0x7fffffffed00) -- paddr (0xc5d00) 

-- Tick (139595000) -- ISN: (85324) : S -> (0x0) at (0x6bc444) -- Size = (4) -- vaddr (0x6bc444) -- paddr (0xbc444) 

-- Tick (139595000) -- ISN: (85336) : S -> (0x0) at (0x7fffffffed04) -- Size = (4) -- vaddr (0x7fffffffed04) -- paddr (0xc5d04) 

-- Tick (139595500) -- ISN: (85328) : S -> (0x2) at (0x7fffffffed00) -- Size = (4) -- vaddr (0x7fffffffed00) -- paddr (0xc5d00) 

-- Tick (139595500) -- ISN: (85343) : S -> (0x27) at (0x7fffffffecf8) -- Size = (8) -- vaddr (0x7fffffffecf8) -- paddr (0xc5cf8) 

-- Tick (139595500) -- ISN: (85346) : L from (0x7fffffffed04) -- of Size = (4) -- vaddr (0x7fffffffed04) -- paddr (0xc5d04) 

-- Tick (139596000) -- ISN: (85329) : L from (0x7fffffffed00) -- of Size = (4) -- vaddr (0x7fffffffed00) -- paddr (0xc5d00) 

-- Tick (139596000) -- ISN: (85350) : S -> (0x31) at (0x7fffffffecf0) -- Size = (8) -- vaddr (0x7fffffffecf0) -- paddr (0xc5cf0) 

-- Tick (139596000) -- ISN: (85353) : L from (0x7fffffffed04) -- of Size = (4) -- vaddr (0x7fffffffed04) -- paddr (0xc5d04) 

-- Tick (139596000) -- ISN: (85357) : L from (0x7fffffffed04) -- of Size = (4) -- vaddr (0x7fffffffed04) -- paddr (0xc5d04) 

-- Sqsh -> ISN (85339)

-- ReadReq [d00:d3f] IF Hit -- Blk --state: 7 (E) valid: 1 writable: 1 readable: 1 dirty: 0 | tag: 0x3 set: 0x4 way: 0 Latency: 2 

-- ReadReq [d40:d7f] IF Miss --  Latency: 502 

-- Sqsh -> ISN (85334)

-- ReadReq [cc0:cff] IF Hit -- Blk --state: 7 (E) valid: 1 writable: 1 readable: 1 dirty: 0 | tag: 0x3 set: 0x3 way: 0 Latency: 2 

-- ReadReq [d00:d3f] IF Hit -- Blk --state: 7 (E) valid: 1 writable: 1 readable: 1 dirty: 0 | tag: 0x3 set: 0x4 way: 0 Latency: 2 

-- ReadReq [d40:d7f] IF Miss --  Latency: 502 

-- Tick (139603500) -- ISN: (85363) : L from (0x7fffffffed00) -- of Size = (4) -- vaddr (0x7fffffffed00) -- paddr (0xc5d00) 

-- Tick (139604500) -- ISN: (85370) : L from (0x7fffffffed00) -- of Size = (4) -- vaddr (0x7fffffffed00) -- paddr (0xc5d00) 

-- Tick (139605500) -- ISN: (85369) : S -> (0x0) at (0x6bc448) -- Size = (4) -- vaddr (0x6bc448) -- paddr (0xbc448) 

-- Tick (139605500) -- ISN: (85381) : S -> (0x0) at (0x7fffffffed04) -- Size = (4) -- vaddr (0x7fffffffed04) -- paddr (0xc5d04) 

-- Tick (139606000) -- ISN: (85373) : S -> (0x3) at (0x7fffffffed00) -- Size = (4) -- vaddr (0x7fffffffed00) -- paddr (0xc5d00) 

-- Tick (139606000) -- ISN: (85388) : S -> (0x27) at (0x7fffffffecf8) -- Size = (8) -- vaddr (0x7fffffffecf8) -- paddr (0xc5cf8) 

-- Tick (139606000) -- ISN: (85391) : L from (0x7fffffffed04) -- of Size = (4) -- vaddr (0x7fffffffed04) -- paddr (0xc5d04) 

-- Tick (139606500) -- ISN: (85374) : L from (0x7fffffffed00) -- of Size = (4) -- vaddr (0x7fffffffed00) -- paddr (0xc5d00) 

-- Tick (139606500) -- ISN: (85395) : S -> (0x31) at (0x7fffffffecf0) -- Size = (8) -- vaddr (0x7fffffffecf0) -- paddr (0xc5cf0) 

-- Tick (139606500) -- ISN: (85398) : L from (0x7fffffffed04) -- of Size = (4) -- vaddr (0x7fffffffed04) -- paddr (0xc5d04) 

-- Tick (139606500) -- ISN: (85402) : L from (0x7fffffffed04) -- of Size = (4) -- vaddr (0x7fffffffed04) -- paddr (0xc5d04) 

-- Sqsh -> ISN (85384)

-- ReadReq [d00:d3f] IF Hit -- Blk --state: 7 (E) valid: 1 writable: 1 readable: 1 dirty: 0 | tag: 0x3 set: 0x4 way: 0 Latency: 2 

-- ReadReq [d40:d7f] IF Miss --  Latency: 502 

-- Sqsh -> ISN (85379)

-- ReadReq [cc0:cff] IF Hit -- Blk --state: 7 (E) valid: 1 writable: 1 readable: 1 dirty: 0 | tag: 0x3 set: 0x3 way: 0 Latency: 2 

-- ReadReq [d00:d3f] IF Hit -- Blk --state: 7 (E) valid: 1 writable: 1 readable: 1 dirty: 0 | tag: 0x3 set: 0x4 way: 0 Latency: 2 

-- ReadReq [d40:d7f] IF Miss --  Latency: 502 

-- Tick (139614000) -- ISN: (85408) : L from (0x7fffffffed00) -- of Size = (4) -- vaddr (0x7fffffffed00) -- paddr (0xc5d00) 

-- Tick (139615000) -- ISN: (85415) : L from (0x7fffffffed00) -- of Size = (4) -- vaddr (0x7fffffffed00) -- paddr (0xc5d00) 

-- Tick (139616000) -- ISN: (85414) : S -> (0x0) at (0x6bc44c) -- Size = (4) -- vaddr (0x6bc44c) -- paddr (0xbc44c) 

-- Tick (139616000) -- ISN: (85426) : S -> (0x0) at (0x7fffffffed04) -- Size = (4) -- vaddr (0x7fffffffed04) -- paddr (0xc5d04) 

-- Tick (139616000) -- ISN: (85430) : L from (0x7fffffffed04) -- of Size = (4) -- vaddr (0x7fffffffed04) -- paddr (0xc5d04) 

-- Tick (139616500) -- ISN: (85418) : S -> (0x4) at (0x7fffffffed00) -- Size = (4) -- vaddr (0x7fffffffed00) -- paddr (0xc5d00) 

-- Tick (139617000) -- ISN: (85419) : L from (0x7fffffffed00) -- of Size = (4) -- vaddr (0x7fffffffed00) -- paddr (0xc5d00) 

-- Sqsh -> ISN (85429)

-- ReadReq [d00:d3f] IF Hit -- Blk --state: 7 (E) valid: 1 writable: 1 readable: 1 dirty: 0 | tag: 0x3 set: 0x4 way: 0 Latency: 2 

-- ReadReq [d40:d7f] IF Miss --  Latency: 502 

-- Sqsh -> ISN (85424)

-- ReadReq [cc0:cff] IF Hit -- Blk --state: 7 (E) valid: 1 writable: 1 readable: 1 dirty: 0 | tag: 0x3 set: 0x3 way: 0 Latency: 2 

-- ReadReq [d00:d3f] IF Hit -- Blk --state: 7 (E) valid: 1 writable: 1 readable: 1 dirty: 0 | tag: 0x3 set: 0x4 way: 0 Latency: 2 

-- ReadReq [cc0:cff] IF Hit -- Blk --state: 7 (E) valid: 1 writable: 1 readable: 1 dirty: 0 | tag: 0x3 set: 0x3 way: 0 Latency: 2 

-- ReadReq [d00:d3f] IF Hit -- Blk --state: 7 (E) valid: 1 writable: 1 readable: 1 dirty: 0 | tag: 0x3 set: 0x4 way: 0 Latency: 2 

-- Tick (139623500) -- ISN: (85436) : L from (0x7fffffffed00) -- of Size = (4) -- vaddr (0x7fffffffed00) -- paddr (0xc5d00) 

-- Tick (139624500) -- ISN: (85443) : L from (0x7fffffffed00) -- of Size = (4) -- vaddr (0x7fffffffed00) -- paddr (0xc5d00) 

-- ReadReq [cc0:cff] IF Hit -- Blk --state: 7 (E) valid: 1 writable: 1 readable: 1 dirty: 0 | tag: 0x3 set: 0x3 way: 0 Latency: 2 

-- Tick (139625500) -- ISN: (85442) : S -> (0x0) at (0x6bc450) -- Size = (4) -- vaddr (0x6bc450) -- paddr (0xbc450) 

-- ReadReq [d00:d3f] IF Hit -- Blk --state: 7 (E) valid: 1 writable: 1 readable: 1 dirty: 0 | tag: 0x3 set: 0x4 way: 0 Latency: 2 

-- Tick (139626000) -- ISN: (85446) : S -> (0x5) at (0x7fffffffed00) -- Size = (4) -- vaddr (0x7fffffffed00) -- paddr (0xc5d00) 

-- Tick (139626000) -- ISN: (85453) : L from (0x7fffffffed00) -- of Size = (4) -- vaddr (0x7fffffffed00) -- paddr (0xc5d00) 

-- Tick (139626500) -- ISN: (85447) : L from (0x7fffffffed00) -- of Size = (4) -- vaddr (0x7fffffffed00) -- paddr (0xc5d00) 

-- Tick (139627000) -- ISN: (85460) : L from (0x7fffffffed00) -- of Size = (4) -- vaddr (0x7fffffffed00) -- paddr (0xc5d00) 

-- ReadReq [cc0:cff] IF Hit -- Blk --state: 7 (E) valid: 1 writable: 1 readable: 1 dirty: 0 | tag: 0x3 set: 0x3 way: 0 Latency: 2 

-- Tick (139628000) -- ISN: (85459) : S -> (0x0) at (0x6bc454) -- Size = (4) -- vaddr (0x6bc454) -- paddr (0xbc454) 

-- ReadReq [d00:d3f] IF Hit -- Blk --state: 7 (E) valid: 1 writable: 1 readable: 1 dirty: 0 | tag: 0x3 set: 0x4 way: 0 Latency: 2 

-- Tick (139628500) -- ISN: (85463) : S -> (0x6) at (0x7fffffffed00) -- Size = (4) -- vaddr (0x7fffffffed00) -- paddr (0xc5d00) 

-- Tick (139628500) -- ISN: (85470) : L from (0x7fffffffed00) -- of Size = (4) -- vaddr (0x7fffffffed00) -- paddr (0xc5d00) 

-- Tick (139629000) -- ISN: (85464) : L from (0x7fffffffed00) -- of Size = (4) -- vaddr (0x7fffffffed00) -- paddr (0xc5d00) 

-- Tick (139629500) -- ISN: (85477) : L from (0x7fffffffed00) -- of Size = (4) -- vaddr (0x7fffffffed00) -- paddr (0xc5d00) 

-- ReadReq [cc0:cff] IF Hit -- Blk --state: 7 (E) valid: 1 writable: 1 readable: 1 dirty: 0 | tag: 0x3 set: 0x3 way: 0 Latency: 2 

-- Tick (139630500) -- ISN: (85476) : S -> (0x0) at (0x6bc458) -- Size = (4) -- vaddr (0x6bc458) -- paddr (0xbc458) 

-- ReadReq [d00:d3f] IF Hit -- Blk --state: 7 (E) valid: 1 writable: 1 readable: 1 dirty: 0 | tag: 0x3 set: 0x4 way: 0 Latency: 2 

-- Tick (139631000) -- ISN: (85480) : S -> (0x7) at (0x7fffffffed00) -- Size = (4) -- vaddr (0x7fffffffed00) -- paddr (0xc5d00) 

-- Tick (139631000) -- ISN: (85487) : L from (0x7fffffffed00) -- of Size = (4) -- vaddr (0x7fffffffed00) -- paddr (0xc5d00) 

-- Tick (139631500) -- ISN: (85481) : L from (0x7fffffffed00) -- of Size = (4) -- vaddr (0x7fffffffed00) -- paddr (0xc5d00) 

-- Tick (139632000) -- ISN: (85494) : L from (0x7fffffffed00) -- of Size = (4) -- vaddr (0x7fffffffed00) -- paddr (0xc5d00) 

-- ReadReq [cc0:cff] IF Hit -- Blk --state: 7 (E) valid: 1 writable: 1 readable: 1 dirty: 0 | tag: 0x3 set: 0x3 way: 0 Latency: 2 

-- Tick (139633000) -- ISN: (85493) : S -> (0x0) at (0x6bc45c) -- Size = (4) -- vaddr (0x6bc45c) -- paddr (0xbc45c) 

-- ReadReq [d00:d3f] IF Hit -- Blk --state: 7 (E) valid: 1 writable: 1 readable: 1 dirty: 0 | tag: 0x3 set: 0x4 way: 0 Latency: 2 

-- Tick (139633500) -- ISN: (85497) : S -> (0x8) at (0x7fffffffed00) -- Size = (4) -- vaddr (0x7fffffffed00) -- paddr (0xc5d00) 

-- Tick (139633500) -- ISN: (85504) : L from (0x7fffffffed00) -- of Size = (4) -- vaddr (0x7fffffffed00) -- paddr (0xc5d00) 

-- Tick (139634000) -- ISN: (85498) : L from (0x7fffffffed00) -- of Size = (4) -- vaddr (0x7fffffffed00) -- paddr (0xc5d00) 

-- Tick (139634500) -- ISN: (85511) : L from (0x7fffffffed00) -- of Size = (4) -- vaddr (0x7fffffffed00) -- paddr (0xc5d00) 

-- ReadReq [cc0:cff] IF Hit -- Blk --state: 7 (E) valid: 1 writable: 1 readable: 1 dirty: 0 | tag: 0x3 set: 0x3 way: 0 Latency: 2 

-- Tick (139635500) -- ISN: (85510) : S -> (0x0) at (0x6bc460) -- Size = (4) -- vaddr (0x6bc460) -- paddr (0xbc460) 

-- ReadReq [d00:d3f] IF Hit -- Blk --state: 7 (E) valid: 1 writable: 1 readable: 1 dirty: 0 | tag: 0x3 set: 0x4 way: 0 Latency: 2 

-- Tick (139636000) -- ISN: (85514) : S -> (0x9) at (0x7fffffffed00) -- Size = (4) -- vaddr (0x7fffffffed00) -- paddr (0xc5d00) 

-- Tick (139636000) -- ISN: (85521) : L from (0x7fffffffed00) -- of Size = (4) -- vaddr (0x7fffffffed00) -- paddr (0xc5d00) 

-- Tick (139636500) -- ISN: (85515) : L from (0x7fffffffed00) -- of Size = (4) -- vaddr (0x7fffffffed00) -- paddr (0xc5d00) 

-- Tick (139637000) -- ISN: (85528) : L from (0x7fffffffed00) -- of Size = (4) -- vaddr (0x7fffffffed00) -- paddr (0xc5d00) 

-- ReadReq [cc0:cff] IF Hit -- Blk --state: 7 (E) valid: 1 writable: 1 readable: 1 dirty: 0 | tag: 0x3 set: 0x3 way: 0 Latency: 2 

-- Tick (139638000) -- ISN: (85527) : S -> (0x0) at (0x6bc464) -- Size = (4) -- vaddr (0x6bc464) -- paddr (0xbc464) 

-- ReadReq [d00:d3f] IF Hit -- Blk --state: 7 (E) valid: 1 writable: 1 readable: 1 dirty: 0 | tag: 0x3 set: 0x4 way: 0 Latency: 2 

-- Tick (139638500) -- ISN: (85531) : S -> (0xa) at (0x7fffffffed00) -- Size = (4) -- vaddr (0x7fffffffed00) -- paddr (0xc5d00) 

-- Tick (139638500) -- ISN: (85538) : L from (0x7fffffffed00) -- of Size = (4) -- vaddr (0x7fffffffed00) -- paddr (0xc5d00) 

-- Tick (139639000) -- ISN: (85532) : L from (0x7fffffffed00) -- of Size = (4) -- vaddr (0x7fffffffed00) -- paddr (0xc5d00) 

-- Tick (139639500) -- ISN: (85545) : L from (0x7fffffffed00) -- of Size = (4) -- vaddr (0x7fffffffed00) -- paddr (0xc5d00) 

-- ReadReq [cc0:cff] IF Hit -- Blk --state: 7 (E) valid: 1 writable: 1 readable: 1 dirty: 0 | tag: 0x3 set: 0x3 way: 0 Latency: 2 

-- Tick (139640500) -- ISN: (85544) : S -> (0x0) at (0x6bc468) -- Size = (4) -- vaddr (0x6bc468) -- paddr (0xbc468) 

-- ReadReq [d00:d3f] IF Hit -- Blk --state: 7 (E) valid: 1 writable: 1 readable: 1 dirty: 0 | tag: 0x3 set: 0x4 way: 0 Latency: 2 

-- Tick (139641000) -- ISN: (85548) : S -> (0xb) at (0x7fffffffed00) -- Size = (4) -- vaddr (0x7fffffffed00) -- paddr (0xc5d00) 

-- Tick (139641000) -- ISN: (85555) : L from (0x7fffffffed00) -- of Size = (4) -- vaddr (0x7fffffffed00) -- paddr (0xc5d00) 

-- Tick (139641500) -- ISN: (85549) : L from (0x7fffffffed00) -- of Size = (4) -- vaddr (0x7fffffffed00) -- paddr (0xc5d00) 

-- Tick (139642000) -- ISN: (85562) : L from (0x7fffffffed00) -- of Size = (4) -- vaddr (0x7fffffffed00) -- paddr (0xc5d00) 

-- ReadReq [cc0:cff] IF Hit -- Blk --state: 7 (E) valid: 1 writable: 1 readable: 1 dirty: 0 | tag: 0x3 set: 0x3 way: 0 Latency: 2 

-- Tick (139643000) -- ISN: (85561) : S -> (0x0) at (0x6bc46c) -- Size = (4) -- vaddr (0x6bc46c) -- paddr (0xbc46c) 

-- ReadReq [d00:d3f] IF Hit -- Blk --state: 7 (E) valid: 1 writable: 1 readable: 1 dirty: 0 | tag: 0x3 set: 0x4 way: 0 Latency: 2 

-- Tick (139643500) -- ISN: (85565) : S -> (0xc) at (0x7fffffffed00) -- Size = (4) -- vaddr (0x7fffffffed00) -- paddr (0xc5d00) 

-- Tick (139643500) -- ISN: (85572) : L from (0x7fffffffed00) -- of Size = (4) -- vaddr (0x7fffffffed00) -- paddr (0xc5d00) 

-- Tick (139644000) -- ISN: (85566) : L from (0x7fffffffed00) -- of Size = (4) -- vaddr (0x7fffffffed00) -- paddr (0xc5d00) 

-- Tick (139644500) -- ISN: (85579) : L from (0x7fffffffed00) -- of Size = (4) -- vaddr (0x7fffffffed00) -- paddr (0xc5d00) 

-- ReadReq [cc0:cff] IF Hit -- Blk --state: 7 (E) valid: 1 writable: 1 readable: 1 dirty: 0 | tag: 0x3 set: 0x3 way: 0 Latency: 2 

-- Tick (139645500) -- ISN: (85578) : S -> (0x0) at (0x6bc470) -- Size = (4) -- vaddr (0x6bc470) -- paddr (0xbc470) 

-- ReadReq [d00:d3f] IF Hit -- Blk --state: 7 (E) valid: 1 writable: 1 readable: 1 dirty: 0 | tag: 0x3 set: 0x4 way: 0 Latency: 2 

-- Tick (139646000) -- ISN: (85582) : S -> (0xd) at (0x7fffffffed00) -- Size = (4) -- vaddr (0x7fffffffed00) -- paddr (0xc5d00) 

-- Tick (139646000) -- ISN: (85589) : L from (0x7fffffffed00) -- of Size = (4) -- vaddr (0x7fffffffed00) -- paddr (0xc5d00) 

-- Tick (139646500) -- ISN: (85583) : L from (0x7fffffffed00) -- of Size = (4) -- vaddr (0x7fffffffed00) -- paddr (0xc5d00) 

-- Tick (139647000) -- ISN: (85596) : L from (0x7fffffffed00) -- of Size = (4) -- vaddr (0x7fffffffed00) -- paddr (0xc5d00) 

-- ReadReq [cc0:cff] IF Hit -- Blk --state: 7 (E) valid: 1 writable: 1 readable: 1 dirty: 0 | tag: 0x3 set: 0x3 way: 0 Latency: 2 

-- Tick (139648000) -- ISN: (85595) : S -> (0x0) at (0x6bc474) -- Size = (4) -- vaddr (0x6bc474) -- paddr (0xbc474) 

-- ReadReq [d00:d3f] IF Hit -- Blk --state: 7 (E) valid: 1 writable: 1 readable: 1 dirty: 0 | tag: 0x3 set: 0x4 way: 0 Latency: 2 

-- Tick (139648500) -- ISN: (85599) : S -> (0xe) at (0x7fffffffed00) -- Size = (4) -- vaddr (0x7fffffffed00) -- paddr (0xc5d00) 

-- Tick (139648500) -- ISN: (85606) : L from (0x7fffffffed00) -- of Size = (4) -- vaddr (0x7fffffffed00) -- paddr (0xc5d00) 

-- Tick (139649000) -- ISN: (85600) : L from (0x7fffffffed00) -- of Size = (4) -- vaddr (0x7fffffffed00) -- paddr (0xc5d00) 

-- Tick (139649500) -- ISN: (85613) : L from (0x7fffffffed00) -- of Size = (4) -- vaddr (0x7fffffffed00) -- paddr (0xc5d00) 

-- ReadReq [cc0:cff] IF Hit -- Blk --state: 7 (E) valid: 1 writable: 1 readable: 1 dirty: 0 | tag: 0x3 set: 0x3 way: 0 Latency: 2 

-- Tick (139650500) -- ISN: (85612) : S -> (0x0) at (0x6bc478) -- Size = (4) -- vaddr (0x6bc478) -- paddr (0xbc478) 

-- ReadReq [d00:d3f] IF Hit -- Blk --state: 7 (E) valid: 1 writable: 1 readable: 1 dirty: 0 | tag: 0x3 set: 0x4 way: 0 Latency: 2 

-- Tick (139651000) -- ISN: (85616) : S -> (0xf) at (0x7fffffffed00) -- Size = (4) -- vaddr (0x7fffffffed00) -- paddr (0xc5d00) 

-- Tick (139651000) -- ISN: (85623) : L from (0x7fffffffed00) -- of Size = (4) -- vaddr (0x7fffffffed00) -- paddr (0xc5d00) 

-- Tick (139651500) -- ISN: (85617) : L from (0x7fffffffed00) -- of Size = (4) -- vaddr (0x7fffffffed00) -- paddr (0xc5d00) 

-- Tick (139652000) -- ISN: (85630) : L from (0x7fffffffed00) -- of Size = (4) -- vaddr (0x7fffffffed00) -- paddr (0xc5d00) 

-- ReadReq [cc0:cff] IF Hit -- Blk --state: 7 (E) valid: 1 writable: 1 readable: 1 dirty: 0 | tag: 0x3 set: 0x3 way: 0 Latency: 2 

-- Tick (139653000) -- ISN: (85629) : S -> (0x0) at (0x6bc47c) -- Size = (4) -- vaddr (0x6bc47c) -- paddr (0xbc47c) 

-- ReadReq [d00:d3f] IF Hit -- Blk --state: 7 (E) valid: 1 writable: 1 readable: 1 dirty: 0 | tag: 0x3 set: 0x4 way: 0 Latency: 2 

-- ReadReq [cc0:cff] IF Hit -- Blk --state: 7 (E) valid: 1 writable: 1 readable: 1 dirty: 0 | tag: 0x3 set: 0x3 way: 0 Latency: 2 

-- WriteReq [c5d00:c5d03] Hit -- Blk --state: 7 (E) valid: 1 writable: 1 readable: 1 dirty: 0 | tag: 0x317 set: 0x4 way: 0 Latency: 2 

-- WriteReq [bc440:bc443] Miss --  Latency: 502 

-- ReadReq [d00:d3f] IF Hit -- Blk --state: 7 (E) valid: 1 writable: 1 readable: 1 dirty: 0 | tag: 0x3 set: 0x4 way: 0 Latency: 2 

-- Tick (139710000) -- ISN: (85633) : S -> (0x10) at (0x7fffffffed00) -- Size = (4) -- vaddr (0x7fffffffed00) -- paddr (0xc5d00) 

-- Tick (139710500) -- ISN: (85634) : L from (0x7fffffffed00) -- of Size = (4) -- vaddr (0x7fffffffed00) -- paddr (0xc5d00) 

-- Tick (139711000) -- ISN: (85640) : L from (0x7fffffffed00) -- of Size = (4) -- vaddr (0x7fffffffed00) -- paddr (0xc5d00) 

-- ReadReq [cc0:cff] IF Hit -- Blk --state: 7 (E) valid: 1 writable: 1 readable: 1 dirty: 0 | tag: 0x3 set: 0x3 way: 0 Latency: 2 

-- Tick (139712000) -- ISN: (85647) : L from (0x7fffffffed00) -- of Size = (4) -- vaddr (0x7fffffffed00) -- paddr (0xc5d00) 

-- ReadReq [d00:d3f] IF Hit -- Blk --state: 7 (E) valid: 1 writable: 1 readable: 1 dirty: 0 | tag: 0x3 set: 0x4 way: 0 Latency: 2 

-- Tick (139713000) -- ISN: (85646) : S -> (0x0) at (0x6bc480) -- Size = (4) -- vaddr (0x6bc480) -- paddr (0xbc480) 

-- ReadReq [cc0:cff] IF Hit -- Blk --state: 7 (E) valid: 1 writable: 1 readable: 1 dirty: 0 | tag: 0x3 set: 0x3 way: 0 Latency: 2 

-- WriteReq [c5d00:c5d03] Hit -- Blk --state: f (M) valid: 1 writable: 1 readable: 1 dirty: 1 | tag: 0x317 set: 0x4 way: 0 Latency: 2 

-- WriteReq [bc444:bc447] Hit -- Blk --state: f (M) valid: 1 writable: 1 readable: 1 dirty: 1 | tag: 0x2f1 set: 0x1 way: 0 Latency: 2 

-- Tick (139765000) -- ISN: (85650) : S -> (0x11) at (0x7fffffffed00) -- Size = (4) -- vaddr (0x7fffffffed00) -- paddr (0xc5d00) 

-- Tick (139765000) -- ISN: (85657) : L from (0x7fffffffed00) -- of Size = (4) -- vaddr (0x7fffffffed00) -- paddr (0xc5d00) 

-- WriteReq [c5d00:c5d03] Hit -- Blk --state: f (M) valid: 1 writable: 1 readable: 1 dirty: 1 | tag: 0x317 set: 0x4 way: 0 Latency: 2 

-- Tick (139765500) -- ISN: (85651) : L from (0x7fffffffed00) -- of Size = (4) -- vaddr (0x7fffffffed00) -- paddr (0xc5d00) 

-- ReadReq [d00:d3f] IF Hit -- Blk --state: 7 (E) valid: 1 writable: 1 readable: 1 dirty: 0 | tag: 0x3 set: 0x4 way: 0 Latency: 2 

-- WriteReq [bc448:bc44b] Hit -- Blk --state: f (M) valid: 1 writable: 1 readable: 1 dirty: 1 | tag: 0x2f1 set: 0x1 way: 0 Latency: 2 

-- Tick (139766500) -- ISN: (85664) : L from (0x7fffffffed00) -- of Size = (4) -- vaddr (0x7fffffffed00) -- paddr (0xc5d00) 

-- Tick (139767000) -- ISN: (85663) : S -> (0x0) at (0x6bc484) -- Size = (4) -- vaddr (0x6bc484) -- paddr (0xbc484) 

-- Tick (139767000) -- ISN: (85674) : L from (0x7fffffffed00) -- of Size = (4) -- vaddr (0x7fffffffed00) -- paddr (0xc5d00) 

-- WriteReq [c5d00:c5d03] Hit -- Blk --state: f (M) valid: 1 writable: 1 readable: 1 dirty: 1 | tag: 0x317 set: 0x4 way: 0 Latency: 2 

-- ReadReq [cc0:cff] IF Hit -- Blk --state: 7 (E) valid: 1 writable: 1 readable: 1 dirty: 0 | tag: 0x3 set: 0x3 way: 0 Latency: 2 

-- Tick (139768000) -- ISN: (85667) : S -> (0x12) at (0x7fffffffed00) -- Size = (4) -- vaddr (0x7fffffffed00) -- paddr (0xc5d00) 

-- Tick (139768000) -- ISN: (85681) : L from (0x7fffffffed00) -- of Size = (4) -- vaddr (0x7fffffffed00) -- paddr (0xc5d00) 

-- WriteReq [bc44c:bc44f] Hit -- Blk --state: f (M) valid: 1 writable: 1 readable: 1 dirty: 1 | tag: 0x2f1 set: 0x1 way: 0 Latency: 2 

-- ReadReq [d00:d3f] IF Hit -- Blk --state: 7 (E) valid: 1 writable: 1 readable: 1 dirty: 0 | tag: 0x3 set: 0x4 way: 0 Latency: 2 

-- Tick (139768500) -- ISN: (85668) : L from (0x7fffffffed00) -- of Size = (4) -- vaddr (0x7fffffffed00) -- paddr (0xc5d00) 

-- Sqsh -> ISN (85673)

-- WriteReq [c5d00:c5d03] Hit -- Blk --state: f (M) valid: 1 writable: 1 readable: 1 dirty: 1 | tag: 0x317 set: 0x4 way: 0 Latency: 2 

-- ReadReq [cc0:cff] IF Hit -- Blk --state: 7 (E) valid: 1 writable: 1 readable: 1 dirty: 0 | tag: 0x3 set: 0x3 way: 0 Latency: 2 

-- WriteReq [bc450:bc453] Hit -- Blk --state: f (M) valid: 1 writable: 1 readable: 1 dirty: 1 | tag: 0x2f1 set: 0x1 way: 0 Latency: 2 

-- ReadReq [d00:d3f] IF Hit -- Blk --state: 7 (E) valid: 1 writable: 1 readable: 1 dirty: 0 | tag: 0x3 set: 0x4 way: 0 Latency: 2 

-- WriteReq [c5d00:c5d03] Hit -- Blk --state: f (M) valid: 1 writable: 1 readable: 1 dirty: 1 | tag: 0x317 set: 0x4 way: 0 Latency: 2 

-- ReadReq [cc0:cff] IF Hit -- Blk --state: 7 (E) valid: 1 writable: 1 readable: 1 dirty: 0 | tag: 0x3 set: 0x3 way: 0 Latency: 2 

-- WriteReq [bc454:bc457] Hit -- Blk --state: f (M) valid: 1 writable: 1 readable: 1 dirty: 1 | tag: 0x2f1 set: 0x1 way: 0 Latency: 2 

-- ReadReq [d00:d3f] IF Hit -- Blk --state: 7 (E) valid: 1 writable: 1 readable: 1 dirty: 0 | tag: 0x3 set: 0x4 way: 0 Latency: 2 

-- WriteReq [c5d00:c5d03] Hit -- Blk --state: f (M) valid: 1 writable: 1 readable: 1 dirty: 1 | tag: 0x317 set: 0x4 way: 0 Latency: 2 

-- Tick (139773500) -- ISN: (85730) : L from (0x7fffffffed00) -- of Size = (4) -- vaddr (0x7fffffffed00) -- paddr (0xc5d00) 

-- WriteReq [bc458:bc45b] Hit -- Blk --state: f (M) valid: 1 writable: 1 readable: 1 dirty: 1 | tag: 0x2f1 set: 0x1 way: 0 Latency: 2 

-- ReadReq [cc0:cff] IF Hit -- Blk --state: 7 (E) valid: 1 writable: 1 readable: 1 dirty: 0 | tag: 0x3 set: 0x3 way: 0 Latency: 2 

-- Tick (139774500) -- ISN: (85737) : L from (0x7fffffffed00) -- of Size = (4) -- vaddr (0x7fffffffed00) -- paddr (0xc5d00) 

-- Tick (139774500) -- ISN: (85741) : L from (0x7fffffffed00) -- of Size = (4) -- vaddr (0x7fffffffed00) -- paddr (0xc5d00) 

-- WriteReq [c5d00:c5d03] Hit -- Blk --state: f (M) valid: 1 writable: 1 readable: 1 dirty: 1 | tag: 0x317 set: 0x4 way: 0 Latency: 2 

-- ReadReq [d00:d3f] IF Hit -- Blk --state: 7 (E) valid: 1 writable: 1 readable: 1 dirty: 0 | tag: 0x3 set: 0x4 way: 0 Latency: 2 

-- Tick (139775500) -- ISN: (85736) : S -> (0x0) at (0x6bc488) -- Size = (4) -- vaddr (0x6bc488) -- paddr (0xbc488) 

-- Tick (139776000) -- ISN: (85740) : S -> (0x13) at (0x7fffffffed00) -- Size = (4) -- vaddr (0x7fffffffed00) -- paddr (0xc5d00) 

-- WriteReq [bc45c:bc45f] Hit -- Blk --state: f (M) valid: 1 writable: 1 readable: 1 dirty: 1 | tag: 0x2f1 set: 0x1 way: 0 Latency: 2 

-- Tick (139776500) -- ISN: (85747) : L from (0x7fffffffed00) -- of Size = (4) -- vaddr (0x7fffffffed00) -- paddr (0xc5d00) 

-- Tick (139776500) -- ISN: (85754) : L from (0x7fffffffed00) -- of Size = (4) -- vaddr (0x7fffffffed00) -- paddr (0xc5d00) 

-- Tick (139776500) -- ISN: (85758) : L from (0x7fffffffed00) -- of Size = (4) -- vaddr (0x7fffffffed00) -- paddr (0xc5d00) 

-- Sqsh -> ISN (85740)

-- WriteReq [c5d00:c5d03] Hit -- Blk --state: f (M) valid: 1 writable: 1 readable: 1 dirty: 1 | tag: 0x317 set: 0x4 way: 0 Latency: 2 

-- ReadReq [cc0:cff] IF Hit -- Blk --state: 7 (E) valid: 1 writable: 1 readable: 1 dirty: 0 | tag: 0x3 set: 0x3 way: 0 Latency: 2 

-- WriteReq [bc460:bc463] Hit -- Blk --state: f (M) valid: 1 writable: 1 readable: 1 dirty: 1 | tag: 0x2f1 set: 0x1 way: 0 Latency: 2 

-- ReadReq [d00:d3f] IF Hit -- Blk --state: 7 (E) valid: 1 writable: 1 readable: 1 dirty: 0 | tag: 0x3 set: 0x4 way: 0 Latency: 2 

-- WriteReq [c5d00:c5d03] Hit -- Blk --state: f (M) valid: 1 writable: 1 readable: 1 dirty: 1 | tag: 0x317 set: 0x4 way: 0 Latency: 2 

-- ReadReq [cc0:cff] IF Hit -- Blk --state: 7 (E) valid: 1 writable: 1 readable: 1 dirty: 0 | tag: 0x3 set: 0x3 way: 0 Latency: 2 

-- WriteReq [bc464:bc467] Hit -- Blk --state: f (M) valid: 1 writable: 1 readable: 1 dirty: 1 | tag: 0x2f1 set: 0x1 way: 0 Latency: 2 

-- Tick (139780500) -- ISN: (85777) : L from (0x7fffffffed00) -- of Size = (4) -- vaddr (0x7fffffffed00) -- paddr (0xc5d00) 

-- ReadReq [d00:d3f] IF Hit -- Blk --state: 7 (E) valid: 1 writable: 1 readable: 1 dirty: 0 | tag: 0x3 set: 0x4 way: 0 Latency: 2 

-- WriteReq [c5d00:c5d03] Hit -- Blk --state: f (M) valid: 1 writable: 1 readable: 1 dirty: 1 | tag: 0x317 set: 0x4 way: 0 Latency: 2 

-- Tick (139781500) -- ISN: (85783) : L from (0x7fffffffed00) -- of Size = (4) -- vaddr (0x7fffffffed00) -- paddr (0xc5d00) 

-- WriteReq [bc468:bc46b] Hit -- Blk --state: f (M) valid: 1 writable: 1 readable: 1 dirty: 1 | tag: 0x2f1 set: 0x1 way: 0 Latency: 2 

-- ReadReq [cc0:cff] IF Hit -- Blk --state: 7 (E) valid: 1 writable: 1 readable: 1 dirty: 0 | tag: 0x3 set: 0x3 way: 0 Latency: 2 

-- Tick (139782500) -- ISN: (85790) : L from (0x7fffffffed00) -- of Size = (4) -- vaddr (0x7fffffffed00) -- paddr (0xc5d00) 

-- WriteReq [c5d00:c5d03] Hit -- Blk --state: f (M) valid: 1 writable: 1 readable: 1 dirty: 1 | tag: 0x317 set: 0x4 way: 0 Latency: 2 

-- ReadReq [d00:d3f] IF Hit -- Blk --state: 7 (E) valid: 1 writable: 1 readable: 1 dirty: 0 | tag: 0x3 set: 0x4 way: 0 Latency: 2 

-- Tick (139783500) -- ISN: (85789) : S -> (0x0) at (0x6bc48c) -- Size = (4) -- vaddr (0x6bc48c) -- paddr (0xbc48c) 

-- Tick (139784000) -- ISN: (85793) : S -> (0x14) at (0x7fffffffed00) -- Size = (4) -- vaddr (0x7fffffffed00) -- paddr (0xc5d00) 

-- WriteReq [bc46c:bc46f] Hit -- Blk --state: f (M) valid: 1 writable: 1 readable: 1 dirty: 1 | tag: 0x2f1 set: 0x1 way: 0 Latency: 2 

-- Tick (139784500) -- ISN: (85794) : L from (0x7fffffffed00) -- of Size = (4) -- vaddr (0x7fffffffed00) -- paddr (0xc5d00) 

-- Tick (139784500) -- ISN: (85800) : L from (0x7fffffffed00) -- of Size = (4) -- vaddr (0x7fffffffed00) -- paddr (0xc5d00) 

-- Tick (139784500) -- ISN: (85807) : L from (0x7fffffffed00) -- of Size = (4) -- vaddr (0x7fffffffed00) -- paddr (0xc5d00) 

-- ReadReq [cc0:cff] IF Hit -- Blk --state: 7 (E) valid: 1 writable: 1 readable: 1 dirty: 0 | tag: 0x3 set: 0x3 way: 0 Latency: 2 

-- WriteReq [c5d00:c5d03] Hit -- Blk --state: f (M) valid: 1 writable: 1 readable: 1 dirty: 1 | tag: 0x317 set: 0x4 way: 0 Latency: 2 

-- ReadReq [d00:d3f] IF Hit -- Blk --state: 7 (E) valid: 1 writable: 1 readable: 1 dirty: 0 | tag: 0x3 set: 0x4 way: 0 Latency: 2 

-- Tick (139786000) -- ISN: (85810) : S -> (0x15) at (0x7fffffffed00) -- Size = (4) -- vaddr (0x7fffffffed00) -- paddr (0xc5d00) 

-- WriteReq [bc470:bc473] Hit -- Blk --state: f (M) valid: 1 writable: 1 readable: 1 dirty: 1 | tag: 0x2f1 set: 0x1 way: 0 Latency: 2 

-- Tick (139786500) -- ISN: (85806) : S -> (0x0) at (0x6bc490) -- Size = (4) -- vaddr (0x6bc490) -- paddr (0xbc490) 

-- Tick (139786500) -- ISN: (85811) : L from (0x7fffffffed00) -- of Size = (4) -- vaddr (0x7fffffffed00) -- paddr (0xc5d00) 

-- Tick (139786500) -- ISN: (85817) : L from (0x7fffffffed00) -- of Size = (4) -- vaddr (0x7fffffffed00) -- paddr (0xc5d00) 

-- Tick (139787000) -- ISN: (85824) : L from (0x7fffffffed00) -- of Size = (4) -- vaddr (0x7fffffffed00) -- paddr (0xc5d00) 

-- WriteReq [c5d00:c5d03] Hit -- Blk --state: f (M) valid: 1 writable: 1 readable: 1 dirty: 1 | tag: 0x317 set: 0x4 way: 0 Latency: 2 

-- ReadReq [cc0:cff] IF Hit -- Blk --state: 7 (E) valid: 1 writable: 1 readable: 1 dirty: 0 | tag: 0x3 set: 0x3 way: 0 Latency: 2 

-- WriteReq [bc474:bc477] Hit -- Blk --state: f (M) valid: 1 writable: 1 readable: 1 dirty: 1 | tag: 0x2f1 set: 0x1 way: 0 Latency: 2 

-- ReadReq [d00:d3f] IF Hit -- Blk --state: 7 (E) valid: 1 writable: 1 readable: 1 dirty: 0 | tag: 0x3 set: 0x4 way: 0 Latency: 2 

-- Tick (139788500) -- ISN: (85823) : S -> (0x0) at (0x6bc494) -- Size = (4) -- vaddr (0x6bc494) -- paddr (0xbc494) 

-- Tick (139788500) -- ISN: (85827) : S -> (0x16) at (0x7fffffffed00) -- Size = (4) -- vaddr (0x7fffffffed00) -- paddr (0xc5d00) 

-- Tick (139789000) -- ISN: (85828) : L from (0x7fffffffed00) -- of Size = (4) -- vaddr (0x7fffffffed00) -- paddr (0xc5d00) 

-- Tick (139789000) -- ISN: (85834) : L from (0x7fffffffed00) -- of Size = (4) -- vaddr (0x7fffffffed00) -- paddr (0xc5d00) 

-- WriteReq [c5d00:c5d03] Hit -- Blk --state: f (M) valid: 1 writable: 1 readable: 1 dirty: 1 | tag: 0x317 set: 0x4 way: 0 Latency: 2 

-- Tick (139789500) -- ISN: (85841) : L from (0x7fffffffed00) -- of Size = (4) -- vaddr (0x7fffffffed00) -- paddr (0xc5d00) 

-- ReadReq [cc0:cff] IF Hit -- Blk --state: 7 (E) valid: 1 writable: 1 readable: 1 dirty: 0 | tag: 0x3 set: 0x3 way: 0 Latency: 2 

-- WriteReq [bc478:bc47b] Hit -- Blk --state: f (M) valid: 1 writable: 1 readable: 1 dirty: 1 | tag: 0x2f1 set: 0x1 way: 0 Latency: 2 

-- ReadReq [d00:d3f] IF Hit -- Blk --state: 7 (E) valid: 1 writable: 1 readable: 1 dirty: 0 | tag: 0x3 set: 0x4 way: 0 Latency: 2 

-- Tick (139791000) -- ISN: (85840) : S -> (0x0) at (0x6bc498) -- Size = (4) -- vaddr (0x6bc498) -- paddr (0xbc498) 

-- Tick (139791000) -- ISN: (85844) : S -> (0x17) at (0x7fffffffed00) -- Size = (4) -- vaddr (0x7fffffffed00) -- paddr (0xc5d00) 

-- WriteReq [c5d00:c5d03] Hit -- Blk --state: f (M) valid: 1 writable: 1 readable: 1 dirty: 1 | tag: 0x317 set: 0x4 way: 0 Latency: 2 

-- Tick (139791500) -- ISN: (85845) : L from (0x7fffffffed00) -- of Size = (4) -- vaddr (0x7fffffffed00) -- paddr (0xc5d00) 

-- Tick (139791500) -- ISN: (85851) : L from (0x7fffffffed00) -- of Size = (4) -- vaddr (0x7fffffffed00) -- paddr (0xc5d00) 

-- Tick (139792000) -- ISN: (85858) : L from (0x7fffffffed00) -- of Size = (4) -- vaddr (0x7fffffffed00) -- paddr (0xc5d00) 

-- WriteReq [bc47c:bc47f] Hit -- Blk --state: f (M) valid: 1 writable: 1 readable: 1 dirty: 1 | tag: 0x2f1 set: 0x1 way: 0 Latency: 2 

-- ReadReq [cc0:cff] IF Hit -- Blk --state: 7 (E) valid: 1 writable: 1 readable: 1 dirty: 0 | tag: 0x3 set: 0x3 way: 0 Latency: 2 

-- WriteReq [c5d00:c5d03] Hit -- Blk --state: f (M) valid: 1 writable: 1 readable: 1 dirty: 1 | tag: 0x317 set: 0x4 way: 0 Latency: 2 

-- ReadReq [d00:d3f] IF Hit -- Blk --state: 7 (E) valid: 1 writable: 1 readable: 1 dirty: 0 | tag: 0x3 set: 0x4 way: 0 Latency: 2 

-- Tick (139793500) -- ISN: (85857) : S -> (0x0) at (0x6bc49c) -- Size = (4) -- vaddr (0x6bc49c) -- paddr (0xbc49c) 

-- Tick (139793500) -- ISN: (85861) : S -> (0x18) at (0x7fffffffed00) -- Size = (4) -- vaddr (0x7fffffffed00) -- paddr (0xc5d00) 

-- Tick (139794000) -- ISN: (85862) : L from (0x7fffffffed00) -- of Size = (4) -- vaddr (0x7fffffffed00) -- paddr (0xc5d00) 

-- Tick (139794000) -- ISN: (85868) : L from (0x7fffffffed00) -- of Size = (4) -- vaddr (0x7fffffffed00) -- paddr (0xc5d00) 

-- WriteReq [bc480:bc483] Miss --  Latency: 502 

-- Tick (139794500) -- ISN: (85875) : L from (0x7fffffffed00) -- of Size = (4) -- vaddr (0x7fffffffed00) -- paddr (0xc5d00) 

-- ReadReq [cc0:cff] IF Hit -- Blk --state: 7 (E) valid: 1 writable: 1 readable: 1 dirty: 0 | tag: 0x3 set: 0x3 way: 0 Latency: 2 

-- ReadReq [d00:d3f] IF Hit -- Blk --state: 7 (E) valid: 1 writable: 1 readable: 1 dirty: 0 | tag: 0x3 set: 0x4 way: 0 Latency: 2 

-- Tick (139796000) -- ISN: (85874) : S -> (0x0) at (0x6bc4a0) -- Size = (4) -- vaddr (0x6bc4a0) -- paddr (0xbc4a0) 

-- Tick (139796000) -- ISN: (85878) : S -> (0x19) at (0x7fffffffed00) -- Size = (4) -- vaddr (0x7fffffffed00) -- paddr (0xc5d00) 

-- Tick (139796500) -- ISN: (85879) : L from (0x7fffffffed00) -- of Size = (4) -- vaddr (0x7fffffffed00) -- paddr (0xc5d00) 

-- Tick (139796500) -- ISN: (85885) : L from (0x7fffffffed00) -- of Size = (4) -- vaddr (0x7fffffffed00) -- paddr (0xc5d00) 

-- Tick (139797000) -- ISN: (85892) : L from (0x7fffffffed00) -- of Size = (4) -- vaddr (0x7fffffffed00) -- paddr (0xc5d00) 

-- ReadReq [cc0:cff] IF Hit -- Blk --state: 7 (E) valid: 1 writable: 1 readable: 1 dirty: 0 | tag: 0x3 set: 0x3 way: 0 Latency: 2 

-- ReadReq [d00:d3f] IF Hit -- Blk --state: 7 (E) valid: 1 writable: 1 readable: 1 dirty: 0 | tag: 0x3 set: 0x4 way: 0 Latency: 2 

-- Tick (139798500) -- ISN: (85891) : S -> (0x0) at (0x6bc4a4) -- Size = (4) -- vaddr (0x6bc4a4) -- paddr (0xbc4a4) 

-- Tick (139798500) -- ISN: (85895) : S -> (0x1a) at (0x7fffffffed00) -- Size = (4) -- vaddr (0x7fffffffed00) -- paddr (0xc5d00) 

-- Tick (139799000) -- ISN: (85896) : L from (0x7fffffffed00) -- of Size = (4) -- vaddr (0x7fffffffed00) -- paddr (0xc5d00) 

-- Tick (139799000) -- ISN: (85902) : L from (0x7fffffffed00) -- of Size = (4) -- vaddr (0x7fffffffed00) -- paddr (0xc5d00) 

-- Tick (139799500) -- ISN: (85909) : L from (0x7fffffffed00) -- of Size = (4) -- vaddr (0x7fffffffed00) -- paddr (0xc5d00) 

-- ReadReq [cc0:cff] IF Hit -- Blk --state: 7 (E) valid: 1 writable: 1 readable: 1 dirty: 0 | tag: 0x3 set: 0x3 way: 0 Latency: 2 

-- ReadReq [d00:d3f] IF Hit -- Blk --state: 7 (E) valid: 1 writable: 1 readable: 1 dirty: 0 | tag: 0x3 set: 0x4 way: 0 Latency: 2 

-- Tick (139801000) -- ISN: (85908) : S -> (0x0) at (0x6bc4a8) -- Size = (4) -- vaddr (0x6bc4a8) -- paddr (0xbc4a8) 

-- Tick (139801000) -- ISN: (85912) : S -> (0x1b) at (0x7fffffffed00) -- Size = (4) -- vaddr (0x7fffffffed00) -- paddr (0xc5d00) 

-- Tick (139801500) -- ISN: (85913) : L from (0x7fffffffed00) -- of Size = (4) -- vaddr (0x7fffffffed00) -- paddr (0xc5d00) 

-- Tick (139801500) -- ISN: (85919) : L from (0x7fffffffed00) -- of Size = (4) -- vaddr (0x7fffffffed00) -- paddr (0xc5d00) 

-- Tick (139802000) -- ISN: (85926) : L from (0x7fffffffed00) -- of Size = (4) -- vaddr (0x7fffffffed00) -- paddr (0xc5d00) 

-- ReadReq [cc0:cff] IF Hit -- Blk --state: 7 (E) valid: 1 writable: 1 readable: 1 dirty: 0 | tag: 0x3 set: 0x3 way: 0 Latency: 2 

-- ReadReq [d00:d3f] IF Hit -- Blk --state: 7 (E) valid: 1 writable: 1 readable: 1 dirty: 0 | tag: 0x3 set: 0x4 way: 0 Latency: 2 

-- Tick (139803500) -- ISN: (85925) : S -> (0x0) at (0x6bc4ac) -- Size = (4) -- vaddr (0x6bc4ac) -- paddr (0xbc4ac) 

-- Tick (139803500) -- ISN: (85929) : S -> (0x1c) at (0x7fffffffed00) -- Size = (4) -- vaddr (0x7fffffffed00) -- paddr (0xc5d00) 

-- Tick (139804000) -- ISN: (85930) : L from (0x7fffffffed00) -- of Size = (4) -- vaddr (0x7fffffffed00) -- paddr (0xc5d00) 

-- Tick (139804000) -- ISN: (85936) : L from (0x7fffffffed00) -- of Size = (4) -- vaddr (0x7fffffffed00) -- paddr (0xc5d00) 

-- Tick (139804500) -- ISN: (85943) : L from (0x7fffffffed00) -- of Size = (4) -- vaddr (0x7fffffffed00) -- paddr (0xc5d00) 

-- ReadReq [cc0:cff] IF Hit -- Blk --state: 7 (E) valid: 1 writable: 1 readable: 1 dirty: 0 | tag: 0x3 set: 0x3 way: 0 Latency: 2 

-- ReadReq [d00:d3f] IF Hit -- Blk --state: 7 (E) valid: 1 writable: 1 readable: 1 dirty: 0 | tag: 0x3 set: 0x4 way: 0 Latency: 2 

-- Tick (139806000) -- ISN: (85942) : S -> (0x0) at (0x6bc4b0) -- Size = (4) -- vaddr (0x6bc4b0) -- paddr (0xbc4b0) 

-- Tick (139806000) -- ISN: (85946) : S -> (0x1d) at (0x7fffffffed00) -- Size = (4) -- vaddr (0x7fffffffed00) -- paddr (0xc5d00) 

-- Tick (139806500) -- ISN: (85947) : L from (0x7fffffffed00) -- of Size = (4) -- vaddr (0x7fffffffed00) -- paddr (0xc5d00) 

-- Tick (139806500) -- ISN: (85953) : L from (0x7fffffffed00) -- of Size = (4) -- vaddr (0x7fffffffed00) -- paddr (0xc5d00) 

-- Tick (139807000) -- ISN: (85960) : L from (0x7fffffffed00) -- of Size = (4) -- vaddr (0x7fffffffed00) -- paddr (0xc5d00) 

-- ReadReq [cc0:cff] IF Hit -- Blk --state: 7 (E) valid: 1 writable: 1 readable: 1 dirty: 0 | tag: 0x3 set: 0x3 way: 0 Latency: 2 

-- ReadReq [d00:d3f] IF Hit -- Blk --state: 7 (E) valid: 1 writable: 1 readable: 1 dirty: 0 | tag: 0x3 set: 0x4 way: 0 Latency: 2 

-- Tick (139808500) -- ISN: (85959) : S -> (0x0) at (0x6bc4b4) -- Size = (4) -- vaddr (0x6bc4b4) -- paddr (0xbc4b4) 

-- Tick (139808500) -- ISN: (85963) : S -> (0x1e) at (0x7fffffffed00) -- Size = (4) -- vaddr (0x7fffffffed00) -- paddr (0xc5d00) 

-- Tick (139809000) -- ISN: (85964) : L from (0x7fffffffed00) -- of Size = (4) -- vaddr (0x7fffffffed00) -- paddr (0xc5d00) 

-- Tick (139809000) -- ISN: (85970) : L from (0x7fffffffed00) -- of Size = (4) -- vaddr (0x7fffffffed00) -- paddr (0xc5d00) 

-- Tick (139809500) -- ISN: (85977) : L from (0x7fffffffed00) -- of Size = (4) -- vaddr (0x7fffffffed00) -- paddr (0xc5d00) 

-- ReadReq [cc0:cff] IF Hit -- Blk --state: 7 (E) valid: 1 writable: 1 readable: 1 dirty: 0 | tag: 0x3 set: 0x3 way: 0 Latency: 2 

-- ReadReq [d00:d3f] IF Hit -- Blk --state: 7 (E) valid: 1 writable: 1 readable: 1 dirty: 0 | tag: 0x3 set: 0x4 way: 0 Latency: 2 

-- Tick (139811000) -- ISN: (85976) : S -> (0x0) at (0x6bc4b8) -- Size = (4) -- vaddr (0x6bc4b8) -- paddr (0xbc4b8) 

-- Tick (139811000) -- ISN: (85980) : S -> (0x1f) at (0x7fffffffed00) -- Size = (4) -- vaddr (0x7fffffffed00) -- paddr (0xc5d00) 

-- Tick (139811500) -- ISN: (85981) : L from (0x7fffffffed00) -- of Size = (4) -- vaddr (0x7fffffffed00) -- paddr (0xc5d00) 

-- Tick (139811500) -- ISN: (85987) : L from (0x7fffffffed00) -- of Size = (4) -- vaddr (0x7fffffffed00) -- paddr (0xc5d00) 

-- Tick (139812000) -- ISN: (85994) : L from (0x7fffffffed00) -- of Size = (4) -- vaddr (0x7fffffffed00) -- paddr (0xc5d00) 

-- ReadReq [cc0:cff] IF Hit -- Blk --state: 7 (E) valid: 1 writable: 1 readable: 1 dirty: 0 | tag: 0x3 set: 0x3 way: 0 Latency: 2 

-- ReadReq [d00:d3f] IF Hit -- Blk --state: 7 (E) valid: 1 writable: 1 readable: 1 dirty: 0 | tag: 0x3 set: 0x4 way: 0 Latency: 2 

-- Tick (139813500) -- ISN: (85993) : S -> (0x0) at (0x6bc4bc) -- Size = (4) -- vaddr (0x6bc4bc) -- paddr (0xbc4bc) 

-- Tick (139813500) -- ISN: (85997) : S -> (0x20) at (0x7fffffffed00) -- Size = (4) -- vaddr (0x7fffffffed00) -- paddr (0xc5d00) 

-- Tick (139814000) -- ISN: (85998) : L from (0x7fffffffed00) -- of Size = (4) -- vaddr (0x7fffffffed00) -- paddr (0xc5d00) 

-- Tick (139814000) -- ISN: (86004) : L from (0x7fffffffed00) -- of Size = (4) -- vaddr (0x7fffffffed00) -- paddr (0xc5d00) 

-- Tick (139814500) -- ISN: (86011) : L from (0x7fffffffed00) -- of Size = (4) -- vaddr (0x7fffffffed00) -- paddr (0xc5d00) 

-- ReadReq [cc0:cff] IF Hit -- Blk --state: 7 (E) valid: 1 writable: 1 readable: 1 dirty: 0 | tag: 0x3 set: 0x3 way: 0 Latency: 2 

-- ReadReq [d00:d3f] IF Hit -- Blk --state: 7 (E) valid: 1 writable: 1 readable: 1 dirty: 0 | tag: 0x3 set: 0x4 way: 0 Latency: 2 

-- Tick (139816000) -- ISN: (86010) : S -> (0x0) at (0x6bc4c0) -- Size = (4) -- vaddr (0x6bc4c0) -- paddr (0xbc4c0) 

-- ReadReq [cc0:cff] IF Hit -- Blk --state: 7 (E) valid: 1 writable: 1 readable: 1 dirty: 0 | tag: 0x3 set: 0x3 way: 0 Latency: 2 

-- WriteReq [c5d00:c5d03] Hit -- Blk --state: f (M) valid: 1 writable: 1 readable: 1 dirty: 1 | tag: 0x317 set: 0x4 way: 0 Latency: 2 

-- WriteReq [bc484:bc487] Hit -- Blk --state: f (M) valid: 1 writable: 1 readable: 1 dirty: 1 | tag: 0x2f1 set: 0x2 way: 0 Latency: 2 

-- ReadReq [d00:d3f] IF Hit -- Blk --state: 7 (E) valid: 1 writable: 1 readable: 1 dirty: 0 | tag: 0x3 set: 0x4 way: 0 Latency: 2 

-- Tick (139847000) -- ISN: (86014) : S -> (0x21) at (0x7fffffffed00) -- Size = (4) -- vaddr (0x7fffffffed00) -- paddr (0xc5d00) 

-- WriteReq [c5d00:c5d03] Hit -- Blk --state: f (M) valid: 1 writable: 1 readable: 1 dirty: 1 | tag: 0x317 set: 0x4 way: 0 Latency: 2 

-- Tick (139847500) -- ISN: (86015) : L from (0x7fffffffed00) -- of Size = (4) -- vaddr (0x7fffffffed00) -- paddr (0xc5d00) 

-- Tick (139848000) -- ISN: (86021) : L from (0x7fffffffed00) -- of Size = (4) -- vaddr (0x7fffffffed00) -- paddr (0xc5d00) 

-- WriteReq [bc488:bc48b] Hit -- Blk --state: f (M) valid: 1 writable: 1 readable: 1 dirty: 1 | tag: 0x2f1 set: 0x2 way: 0 Latency: 2 

-- ReadReq [cc0:cff] IF Hit -- Blk --state: 7 (E) valid: 1 writable: 1 readable: 1 dirty: 0 | tag: 0x3 set: 0x3 way: 0 Latency: 2 

-- Tick (139849000) -- ISN: (86028) : L from (0x7fffffffed00) -- of Size = (4) -- vaddr (0x7fffffffed00) -- paddr (0xc5d00) 

-- WriteReq [c5d00:c5d03] Hit -- Blk --state: f (M) valid: 1 writable: 1 readable: 1 dirty: 1 | tag: 0x317 set: 0x4 way: 0 Latency: 2 

-- ReadReq [d00:d3f] IF Hit -- Blk --state: 7 (E) valid: 1 writable: 1 readable: 1 dirty: 0 | tag: 0x3 set: 0x4 way: 0 Latency: 2 

-- Tick (139850000) -- ISN: (86027) : S -> (0x0) at (0x6bc4c4) -- Size = (4) -- vaddr (0x6bc4c4) -- paddr (0xbc4c4) 

-- Tick (139850000) -- ISN: (86045) : L from (0x7fffffffed00) -- of Size = (4) -- vaddr (0x7fffffffed00) -- paddr (0xc5d00) 

-- WriteReq [bc48c:bc48f] Hit -- Blk --state: f (M) valid: 1 writable: 1 readable: 1 dirty: 1 | tag: 0x2f1 set: 0x2 way: 0 Latency: 2 

-- Tick (139850500) -- ISN: (86031) : S -> (0x22) at (0x7fffffffed00) -- Size = (4) -- vaddr (0x7fffffffed00) -- paddr (0xc5d00) 

-- ReadReq [cc0:cff] IF Hit -- Blk --state: 7 (E) valid: 1 writable: 1 readable: 1 dirty: 0 | tag: 0x3 set: 0x3 way: 0 Latency: 2 

-- Tick (139851000) -- ISN: (86032) : L from (0x7fffffffed00) -- of Size = (4) -- vaddr (0x7fffffffed00) -- paddr (0xc5d00) 

-- Tick (139851000) -- ISN: (86038) : L from (0x7fffffffed00) -- of Size = (4) -- vaddr (0x7fffffffed00) -- paddr (0xc5d00) 

-- WriteReq [c5d00:c5d03] Hit -- Blk --state: f (M) valid: 1 writable: 1 readable: 1 dirty: 1 | tag: 0x317 set: 0x4 way: 0 Latency: 2 

-- Sqsh -> ISN (86044)

-- ReadReq [d00:d3f] IF Hit -- Blk --state: 7 (E) valid: 1 writable: 1 readable: 1 dirty: 0 | tag: 0x3 set: 0x4 way: 0 Latency: 2 

-- WriteReq [bc490:bc493] Hit -- Blk --state: f (M) valid: 1 writable: 1 readable: 1 dirty: 1 | tag: 0x2f1 set: 0x2 way: 0 Latency: 2 

-- Tick (139853000) -- ISN: (86044) : S -> (0x0) at (0x6bc4c8) -- Size = (4) -- vaddr (0x6bc4c8) -- paddr (0xbc4c8) 

-- WriteReq [c5d00:c5d03] Hit -- Blk --state: f (M) valid: 1 writable: 1 readable: 1 dirty: 1 | tag: 0x317 set: 0x4 way: 0 Latency: 2 

-- ReadReq [cc0:cff] IF Hit -- Blk --state: 7 (E) valid: 1 writable: 1 readable: 1 dirty: 0 | tag: 0x3 set: 0x3 way: 0 Latency: 2 

-- WriteReq [bc494:bc497] Hit -- Blk --state: f (M) valid: 1 writable: 1 readable: 1 dirty: 1 | tag: 0x2f1 set: 0x2 way: 0 Latency: 2 

-- ReadReq [d00:d3f] IF Hit -- Blk --state: 7 (E) valid: 1 writable: 1 readable: 1 dirty: 0 | tag: 0x3 set: 0x4 way: 0 Latency: 2 

-- WriteReq [c5d00:c5d03] Hit -- Blk --state: f (M) valid: 1 writable: 1 readable: 1 dirty: 1 | tag: 0x317 set: 0x4 way: 0 Latency: 2 

-- Tick (139855500) -- ISN: (86089) : L from (0x7fffffffed00) -- of Size = (4) -- vaddr (0x7fffffffed00) -- paddr (0xc5d00) 

-- ReadReq [cc0:cff] IF Hit -- Blk --state: 7 (E) valid: 1 writable: 1 readable: 1 dirty: 0 | tag: 0x3 set: 0x3 way: 0 Latency: 2 

-- WriteReq [bc498:bc49b] Hit -- Blk --state: f (M) valid: 1 writable: 1 readable: 1 dirty: 1 | tag: 0x2f1 set: 0x2 way: 0 Latency: 2 

-- ReadReq [d00:d3f] IF Hit -- Blk --state: 7 (E) valid: 1 writable: 1 readable: 1 dirty: 0 | tag: 0x3 set: 0x4 way: 0 Latency: 2 

-- Tick (139857000) -- ISN: (86092) : S -> (0x23) at (0x7fffffffed00) -- Size = (4) -- vaddr (0x7fffffffed00) -- paddr (0xc5d00) 

-- WriteReq [c5d00:c5d03] Hit -- Blk --state: f (M) valid: 1 writable: 1 readable: 1 dirty: 1 | tag: 0x317 set: 0x4 way: 0 Latency: 2 

-- Tick (139857500) -- ISN: (86093) : L from (0x7fffffffed00) -- of Size = (4) -- vaddr (0x7fffffffed00) -- paddr (0xc5d00) 

-- Tick (139857500) -- ISN: (86099) : L from (0x7fffffffed00) -- of Size = (4) -- vaddr (0x7fffffffed00) -- paddr (0xc5d00) 

-- Tick (139858000) -- ISN: (86106) : L from (0x7fffffffed00) -- of Size = (4) -- vaddr (0x7fffffffed00) -- paddr (0xc5d00) 

-- WriteReq [bc49c:bc49f] Hit -- Blk --state: f (M) valid: 1 writable: 1 readable: 1 dirty: 1 | tag: 0x2f1 set: 0x2 way: 0 Latency: 2 

-- ReadReq [cc0:cff] IF Hit -- Blk --state: 7 (E) valid: 1 writable: 1 readable: 1 dirty: 0 | tag: 0x3 set: 0x3 way: 0 Latency: 2 

-- WriteReq [c5d00:c5d03] Hit -- Blk --state: f (M) valid: 1 writable: 1 readable: 1 dirty: 1 | tag: 0x317 set: 0x4 way: 0 Latency: 2 

-- ReadReq [d00:d3f] IF Hit -- Blk --state: 7 (E) valid: 1 writable: 1 readable: 1 dirty: 0 | tag: 0x3 set: 0x4 way: 0 Latency: 2 

-- Tick (139859500) -- ISN: (86105) : S -> (0x0) at (0x6bc4cc) -- Size = (4) -- vaddr (0x6bc4cc) -- paddr (0xbc4cc) 

-- Tick (139859500) -- ISN: (86109) : S -> (0x24) at (0x7fffffffed00) -- Size = (4) -- vaddr (0x7fffffffed00) -- paddr (0xc5d00) 

-- Tick (139860000) -- ISN: (86110) : L from (0x7fffffffed00) -- of Size = (4) -- vaddr (0x7fffffffed00) -- paddr (0xc5d00) 

-- Tick (139860000) -- ISN: (86116) : L from (0x7fffffffed00) -- of Size = (4) -- vaddr (0x7fffffffed00) -- paddr (0xc5d00) 

-- WriteReq [bc4a0:bc4a3] Hit -- Blk --state: f (M) valid: 1 writable: 1 readable: 1 dirty: 1 | tag: 0x2f1 set: 0x2 way: 0 Latency: 2 

-- Tick (139860500) -- ISN: (86123) : L from (0x7fffffffed00) -- of Size = (4) -- vaddr (0x7fffffffed00) -- paddr (0xc5d00) 

-- ReadReq [cc0:cff] IF Hit -- Blk --state: 7 (E) valid: 1 writable: 1 readable: 1 dirty: 0 | tag: 0x3 set: 0x3 way: 0 Latency: 2 

-- WriteReq [c5d00:c5d03] Hit -- Blk --state: f (M) valid: 1 writable: 1 readable: 1 dirty: 1 | tag: 0x317 set: 0x4 way: 0 Latency: 2 

-- ReadReq [d00:d3f] IF Hit -- Blk --state: 7 (E) valid: 1 writable: 1 readable: 1 dirty: 0 | tag: 0x3 set: 0x4 way: 0 Latency: 2 

-- Tick (139862000) -- ISN: (86122) : S -> (0x0) at (0x6bc4d0) -- Size = (4) -- vaddr (0x6bc4d0) -- paddr (0xbc4d0) 

-- Tick (139862000) -- ISN: (86126) : S -> (0x25) at (0x7fffffffed00) -- Size = (4) -- vaddr (0x7fffffffed00) -- paddr (0xc5d00) 

-- WriteReq [bc4a4:bc4a7] Hit -- Blk --state: f (M) valid: 1 writable: 1 readable: 1 dirty: 1 | tag: 0x2f1 set: 0x2 way: 0 Latency: 2 

-- Tick (139862500) -- ISN: (86127) : L from (0x7fffffffed00) -- of Size = (4) -- vaddr (0x7fffffffed00) -- paddr (0xc5d00) 

-- Tick (139862500) -- ISN: (86133) : L from (0x7fffffffed00) -- of Size = (4) -- vaddr (0x7fffffffed00) -- paddr (0xc5d00) 

-- Tick (139863000) -- ISN: (86140) : L from (0x7fffffffed00) -- of Size = (4) -- vaddr (0x7fffffffed00) -- paddr (0xc5d00) 

-- WriteReq [c5d00:c5d03] Hit -- Blk --state: f (M) valid: 1 writable: 1 readable: 1 dirty: 1 | tag: 0x317 set: 0x4 way: 0 Latency: 2 

-- ReadReq [cc0:cff] IF Hit -- Blk --state: 7 (E) valid: 1 writable: 1 readable: 1 dirty: 0 | tag: 0x3 set: 0x3 way: 0 Latency: 2 

-- WriteReq [bc4a8:bc4ab] Hit -- Blk --state: f (M) valid: 1 writable: 1 readable: 1 dirty: 1 | tag: 0x2f1 set: 0x2 way: 0 Latency: 2 

-- ReadReq [d00:d3f] IF Hit -- Blk --state: 7 (E) valid: 1 writable: 1 readable: 1 dirty: 0 | tag: 0x3 set: 0x4 way: 0 Latency: 2 

-- Tick (139864500) -- ISN: (86139) : S -> (0x0) at (0x6bc4d4) -- Size = (4) -- vaddr (0x6bc4d4) -- paddr (0xbc4d4) 

-- Tick (139864500) -- ISN: (86143) : S -> (0x26) at (0x7fffffffed00) -- Size = (4) -- vaddr (0x7fffffffed00) -- paddr (0xc5d00) 

-- Tick (139865000) -- ISN: (86144) : L from (0x7fffffffed00) -- of Size = (4) -- vaddr (0x7fffffffed00) -- paddr (0xc5d00) 

-- Tick (139865000) -- ISN: (86150) : L from (0x7fffffffed00) -- of Size = (4) -- vaddr (0x7fffffffed00) -- paddr (0xc5d00) 

-- WriteReq [c5d00:c5d03] Hit -- Blk --state: f (M) valid: 1 writable: 1 readable: 1 dirty: 1 | tag: 0x317 set: 0x4 way: 0 Latency: 2 

-- Tick (139865500) -- ISN: (86157) : L from (0x7fffffffed00) -- of Size = (4) -- vaddr (0x7fffffffed00) -- paddr (0xc5d00) 

-- ReadReq [cc0:cff] IF Hit -- Blk --state: 7 (E) valid: 1 writable: 1 readable: 1 dirty: 0 | tag: 0x3 set: 0x3 way: 0 Latency: 2 

-- WriteReq [bc4ac:bc4af] Hit -- Blk --state: f (M) valid: 1 writable: 1 readable: 1 dirty: 1 | tag: 0x2f1 set: 0x2 way: 0 Latency: 2 

-- ReadReq [d00:d3f] IF Hit -- Blk --state: 7 (E) valid: 1 writable: 1 readable: 1 dirty: 0 | tag: 0x3 set: 0x4 way: 0 Latency: 2 

-- Tick (139867000) -- ISN: (86156) : S -> (0x0) at (0x6bc4d8) -- Size = (4) -- vaddr (0x6bc4d8) -- paddr (0xbc4d8) 

-- Tick (139867000) -- ISN: (86160) : S -> (0x27) at (0x7fffffffed00) -- Size = (4) -- vaddr (0x7fffffffed00) -- paddr (0xc5d00) 

-- WriteReq [c5d00:c5d03] Hit -- Blk --state: f (M) valid: 1 writable: 1 readable: 1 dirty: 1 | tag: 0x317 set: 0x4 way: 0 Latency: 2 

-- Tick (139867500) -- ISN: (86161) : L from (0x7fffffffed00) -- of Size = (4) -- vaddr (0x7fffffffed00) -- paddr (0xc5d00) 

-- Tick (139867500) -- ISN: (86167) : L from (0x7fffffffed00) -- of Size = (4) -- vaddr (0x7fffffffed00) -- paddr (0xc5d00) 

-- Tick (139868000) -- ISN: (86174) : L from (0x7fffffffed00) -- of Size = (4) -- vaddr (0x7fffffffed00) -- paddr (0xc5d00) 

-- WriteReq [bc4b0:bc4b3] Hit -- Blk --state: f (M) valid: 1 writable: 1 readable: 1 dirty: 1 | tag: 0x2f1 set: 0x2 way: 0 Latency: 2 

-- ReadReq [cc0:cff] IF Hit -- Blk --state: 7 (E) valid: 1 writable: 1 readable: 1 dirty: 0 | tag: 0x3 set: 0x3 way: 0 Latency: 2 

-- WriteReq [c5d00:c5d03] Hit -- Blk --state: f (M) valid: 1 writable: 1 readable: 1 dirty: 1 | tag: 0x317 set: 0x4 way: 0 Latency: 2 

-- ReadReq [d00:d3f] IF Hit -- Blk --state: 7 (E) valid: 1 writable: 1 readable: 1 dirty: 0 | tag: 0x3 set: 0x4 way: 0 Latency: 2 

-- Tick (139869500) -- ISN: (86173) : S -> (0x0) at (0x6bc4dc) -- Size = (4) -- vaddr (0x6bc4dc) -- paddr (0xbc4dc) 

-- Tick (139869500) -- ISN: (86177) : S -> (0x28) at (0x7fffffffed00) -- Size = (4) -- vaddr (0x7fffffffed00) -- paddr (0xc5d00) 

-- Tick (139870000) -- ISN: (86178) : L from (0x7fffffffed00) -- of Size = (4) -- vaddr (0x7fffffffed00) -- paddr (0xc5d00) 

-- Tick (139870000) -- ISN: (86184) : L from (0x7fffffffed00) -- of Size = (4) -- vaddr (0x7fffffffed00) -- paddr (0xc5d00) 

-- WriteReq [bc4b4:bc4b7] Hit -- Blk --state: f (M) valid: 1 writable: 1 readable: 1 dirty: 1 | tag: 0x2f1 set: 0x2 way: 0 Latency: 2 

-- Tick (139870500) -- ISN: (86191) : L from (0x7fffffffed00) -- of Size = (4) -- vaddr (0x7fffffffed00) -- paddr (0xc5d00) 

-- ReadReq [cc0:cff] IF Hit -- Blk --state: 7 (E) valid: 1 writable: 1 readable: 1 dirty: 0 | tag: 0x3 set: 0x3 way: 0 Latency: 2 

-- WriteReq [c5d00:c5d03] Hit -- Blk --state: f (M) valid: 1 writable: 1 readable: 1 dirty: 1 | tag: 0x317 set: 0x4 way: 0 Latency: 2 

-- ReadReq [d00:d3f] IF Hit -- Blk --state: 7 (E) valid: 1 writable: 1 readable: 1 dirty: 0 | tag: 0x3 set: 0x4 way: 0 Latency: 2 

-- Tick (139872000) -- ISN: (86190) : S -> (0x0) at (0x6bc4e0) -- Size = (4) -- vaddr (0x6bc4e0) -- paddr (0xbc4e0) 

-- Tick (139872000) -- ISN: (86194) : S -> (0x29) at (0x7fffffffed00) -- Size = (4) -- vaddr (0x7fffffffed00) -- paddr (0xc5d00) 

-- WriteReq [bc4b8:bc4bb] Hit -- Blk --state: f (M) valid: 1 writable: 1 readable: 1 dirty: 1 | tag: 0x2f1 set: 0x2 way: 0 Latency: 2 

-- Tick (139872500) -- ISN: (86195) : L from (0x7fffffffed00) -- of Size = (4) -- vaddr (0x7fffffffed00) -- paddr (0xc5d00) 

-- Tick (139872500) -- ISN: (86201) : L from (0x7fffffffed00) -- of Size = (4) -- vaddr (0x7fffffffed00) -- paddr (0xc5d00) 

-- Tick (139873000) -- ISN: (86208) : L from (0x7fffffffed00) -- of Size = (4) -- vaddr (0x7fffffffed00) -- paddr (0xc5d00) 

-- WriteReq [c5d00:c5d03] Hit -- Blk --state: f (M) valid: 1 writable: 1 readable: 1 dirty: 1 | tag: 0x317 set: 0x4 way: 0 Latency: 2 

-- ReadReq [cc0:cff] IF Hit -- Blk --state: 7 (E) valid: 1 writable: 1 readable: 1 dirty: 0 | tag: 0x3 set: 0x3 way: 0 Latency: 2 

-- WriteReq [bc4bc:bc4bf] Hit -- Blk --state: f (M) valid: 1 writable: 1 readable: 1 dirty: 1 | tag: 0x2f1 set: 0x2 way: 0 Latency: 2 

-- ReadReq [d00:d3f] IF Hit -- Blk --state: 7 (E) valid: 1 writable: 1 readable: 1 dirty: 0 | tag: 0x3 set: 0x4 way: 0 Latency: 2 

-- Tick (139874500) -- ISN: (86207) : S -> (0x0) at (0x6bc4e4) -- Size = (4) -- vaddr (0x6bc4e4) -- paddr (0xbc4e4) 

-- Tick (139874500) -- ISN: (86211) : S -> (0x2a) at (0x7fffffffed00) -- Size = (4) -- vaddr (0x7fffffffed00) -- paddr (0xc5d00) 

-- Tick (139875000) -- ISN: (86212) : L from (0x7fffffffed00) -- of Size = (4) -- vaddr (0x7fffffffed00) -- paddr (0xc5d00) 

-- Tick (139875000) -- ISN: (86218) : L from (0x7fffffffed00) -- of Size = (4) -- vaddr (0x7fffffffed00) -- paddr (0xc5d00) 

-- WriteReq [c5d00:c5d03] Hit -- Blk --state: f (M) valid: 1 writable: 1 readable: 1 dirty: 1 | tag: 0x317 set: 0x4 way: 0 Latency: 2 

-- Tick (139875500) -- ISN: (86225) : L from (0x7fffffffed00) -- of Size = (4) -- vaddr (0x7fffffffed00) -- paddr (0xc5d00) 

-- ReadReq [cc0:cff] IF Hit -- Blk --state: 7 (E) valid: 1 writable: 1 readable: 1 dirty: 0 | tag: 0x3 set: 0x3 way: 0 Latency: 2 

-- WriteReq [bc4c0:bc4c3] Miss --  Latency: 502 

-- ReadReq [d00:d3f] IF Hit -- Blk --state: 7 (E) valid: 1 writable: 1 readable: 1 dirty: 0 | tag: 0x3 set: 0x4 way: 0 Latency: 2 

-- Tick (139877000) -- ISN: (86224) : S -> (0x0) at (0x6bc4e8) -- Size = (4) -- vaddr (0x6bc4e8) -- paddr (0xbc4e8) 

-- Tick (139877000) -- ISN: (86228) : S -> (0x2b) at (0x7fffffffed00) -- Size = (4) -- vaddr (0x7fffffffed00) -- paddr (0xc5d00) 

-- Tick (139877500) -- ISN: (86229) : L from (0x7fffffffed00) -- of Size = (4) -- vaddr (0x7fffffffed00) -- paddr (0xc5d00) 

-- Tick (139877500) -- ISN: (86235) : L from (0x7fffffffed00) -- of Size = (4) -- vaddr (0x7fffffffed00) -- paddr (0xc5d00) 

-- Tick (139878000) -- ISN: (86242) : L from (0x7fffffffed00) -- of Size = (4) -- vaddr (0x7fffffffed00) -- paddr (0xc5d00) 

-- ReadReq [cc0:cff] IF Hit -- Blk --state: 7 (E) valid: 1 writable: 1 readable: 1 dirty: 0 | tag: 0x3 set: 0x3 way: 0 Latency: 2 

-- ReadReq [d00:d3f] IF Hit -- Blk --state: 7 (E) valid: 1 writable: 1 readable: 1 dirty: 0 | tag: 0x3 set: 0x4 way: 0 Latency: 2 

-- Tick (139879500) -- ISN: (86241) : S -> (0x0) at (0x6bc4ec) -- Size = (4) -- vaddr (0x6bc4ec) -- paddr (0xbc4ec) 

-- Tick (139879500) -- ISN: (86245) : S -> (0x2c) at (0x7fffffffed00) -- Size = (4) -- vaddr (0x7fffffffed00) -- paddr (0xc5d00) 

-- Tick (139880000) -- ISN: (86246) : L from (0x7fffffffed00) -- of Size = (4) -- vaddr (0x7fffffffed00) -- paddr (0xc5d00) 

-- Tick (139880000) -- ISN: (86252) : L from (0x7fffffffed00) -- of Size = (4) -- vaddr (0x7fffffffed00) -- paddr (0xc5d00) 

-- Tick (139880500) -- ISN: (86259) : L from (0x7fffffffed00) -- of Size = (4) -- vaddr (0x7fffffffed00) -- paddr (0xc5d00) 

-- ReadReq [cc0:cff] IF Hit -- Blk --state: 7 (E) valid: 1 writable: 1 readable: 1 dirty: 0 | tag: 0x3 set: 0x3 way: 0 Latency: 2 

-- ReadReq [d00:d3f] IF Hit -- Blk --state: 7 (E) valid: 1 writable: 1 readable: 1 dirty: 0 | tag: 0x3 set: 0x4 way: 0 Latency: 2 

-- Tick (139882000) -- ISN: (86258) : S -> (0x0) at (0x6bc4f0) -- Size = (4) -- vaddr (0x6bc4f0) -- paddr (0xbc4f0) 

-- Tick (139882000) -- ISN: (86262) : S -> (0x2d) at (0x7fffffffed00) -- Size = (4) -- vaddr (0x7fffffffed00) -- paddr (0xc5d00) 

-- Tick (139882500) -- ISN: (86263) : L from (0x7fffffffed00) -- of Size = (4) -- vaddr (0x7fffffffed00) -- paddr (0xc5d00) 

-- Tick (139882500) -- ISN: (86269) : L from (0x7fffffffed00) -- of Size = (4) -- vaddr (0x7fffffffed00) -- paddr (0xc5d00) 

-- Tick (139883000) -- ISN: (86276) : L from (0x7fffffffed00) -- of Size = (4) -- vaddr (0x7fffffffed00) -- paddr (0xc5d00) 

-- ReadReq [cc0:cff] IF Hit -- Blk --state: 7 (E) valid: 1 writable: 1 readable: 1 dirty: 0 | tag: 0x3 set: 0x3 way: 0 Latency: 2 

-- ReadReq [d00:d3f] IF Hit -- Blk --state: 7 (E) valid: 1 writable: 1 readable: 1 dirty: 0 | tag: 0x3 set: 0x4 way: 0 Latency: 2 

-- Tick (139884500) -- ISN: (86275) : S -> (0x0) at (0x6bc4f4) -- Size = (4) -- vaddr (0x6bc4f4) -- paddr (0xbc4f4) 

-- Tick (139884500) -- ISN: (86279) : S -> (0x2e) at (0x7fffffffed00) -- Size = (4) -- vaddr (0x7fffffffed00) -- paddr (0xc5d00) 

-- Tick (139885000) -- ISN: (86280) : L from (0x7fffffffed00) -- of Size = (4) -- vaddr (0x7fffffffed00) -- paddr (0xc5d00) 

-- Tick (139885000) -- ISN: (86286) : L from (0x7fffffffed00) -- of Size = (4) -- vaddr (0x7fffffffed00) -- paddr (0xc5d00) 

-- Tick (139885500) -- ISN: (86293) : L from (0x7fffffffed00) -- of Size = (4) -- vaddr (0x7fffffffed00) -- paddr (0xc5d00) 

-- ReadReq [cc0:cff] IF Hit -- Blk --state: 7 (E) valid: 1 writable: 1 readable: 1 dirty: 0 | tag: 0x3 set: 0x3 way: 0 Latency: 2 

-- ReadReq [d00:d3f] IF Hit -- Blk --state: 7 (E) valid: 1 writable: 1 readable: 1 dirty: 0 | tag: 0x3 set: 0x4 way: 0 Latency: 2 

-- Tick (139887000) -- ISN: (86292) : S -> (0x0) at (0x6bc4f8) -- Size = (4) -- vaddr (0x6bc4f8) -- paddr (0xbc4f8) 

-- Tick (139887000) -- ISN: (86296) : S -> (0x2f) at (0x7fffffffed00) -- Size = (4) -- vaddr (0x7fffffffed00) -- paddr (0xc5d00) 

-- Tick (139887500) -- ISN: (86297) : L from (0x7fffffffed00) -- of Size = (4) -- vaddr (0x7fffffffed00) -- paddr (0xc5d00) 

-- Tick (139887500) -- ISN: (86303) : L from (0x7fffffffed00) -- of Size = (4) -- vaddr (0x7fffffffed00) -- paddr (0xc5d00) 

-- Tick (139888000) -- ISN: (86310) : L from (0x7fffffffed00) -- of Size = (4) -- vaddr (0x7fffffffed00) -- paddr (0xc5d00) 

-- ReadReq [cc0:cff] IF Hit -- Blk --state: 7 (E) valid: 1 writable: 1 readable: 1 dirty: 0 | tag: 0x3 set: 0x3 way: 0 Latency: 2 

-- ReadReq [d00:d3f] IF Hit -- Blk --state: 7 (E) valid: 1 writable: 1 readable: 1 dirty: 0 | tag: 0x3 set: 0x4 way: 0 Latency: 2 

-- Tick (139889500) -- ISN: (86309) : S -> (0x0) at (0x6bc4fc) -- Size = (4) -- vaddr (0x6bc4fc) -- paddr (0xbc4fc) 

-- Tick (139889500) -- ISN: (86313) : S -> (0x30) at (0x7fffffffed00) -- Size = (4) -- vaddr (0x7fffffffed00) -- paddr (0xc5d00) 

-- Tick (139890000) -- ISN: (86314) : L from (0x7fffffffed00) -- of Size = (4) -- vaddr (0x7fffffffed00) -- paddr (0xc5d00) 

-- Tick (139890000) -- ISN: (86320) : L from (0x7fffffffed00) -- of Size = (4) -- vaddr (0x7fffffffed00) -- paddr (0xc5d00) 

-- Tick (139890500) -- ISN: (86327) : L from (0x7fffffffed00) -- of Size = (4) -- vaddr (0x7fffffffed00) -- paddr (0xc5d00) 

-- ReadReq [cc0:cff] IF Hit -- Blk --state: 7 (E) valid: 1 writable: 1 readable: 1 dirty: 0 | tag: 0x3 set: 0x3 way: 0 Latency: 2 

-- ReadReq [d00:d3f] IF Hit -- Blk --state: 7 (E) valid: 1 writable: 1 readable: 1 dirty: 0 | tag: 0x3 set: 0x4 way: 0 Latency: 2 

-- Tick (139892000) -- ISN: (86326) : S -> (0x0) at (0x6bc500) -- Size = (4) -- vaddr (0x6bc500) -- paddr (0xbc500) 

-- ReadReq [cc0:cff] IF Hit -- Blk --state: 7 (E) valid: 1 writable: 1 readable: 1 dirty: 0 | tag: 0x3 set: 0x3 way: 0 Latency: 2 

-- WriteReq [c5d00:c5d03] Hit -- Blk --state: f (M) valid: 1 writable: 1 readable: 1 dirty: 1 | tag: 0x317 set: 0x4 way: 0 Latency: 2 

-- WriteReq [bc4c4:bc4c7] Hit -- Blk --state: f (M) valid: 1 writable: 1 readable: 1 dirty: 1 | tag: 0x2f1 set: 0x3 way: 0 Latency: 2 

-- ReadReq [d00:d3f] IF Hit -- Blk --state: 7 (E) valid: 1 writable: 1 readable: 1 dirty: 0 | tag: 0x3 set: 0x4 way: 0 Latency: 2 

-- Tick (139929000) -- ISN: (86330) : S -> (0x31) at (0x7fffffffed00) -- Size = (4) -- vaddr (0x7fffffffed00) -- paddr (0xc5d00) 

-- WriteReq [c5d00:c5d03] Hit -- Blk --state: f (M) valid: 1 writable: 1 readable: 1 dirty: 1 | tag: 0x317 set: 0x4 way: 0 Latency: 2 

-- Tick (139929500) -- ISN: (86331) : L from (0x7fffffffed00) -- of Size = (4) -- vaddr (0x7fffffffed00) -- paddr (0xc5d00) 

-- Tick (139930000) -- ISN: (86337) : L from (0x7fffffffed00) -- of Size = (4) -- vaddr (0x7fffffffed00) -- paddr (0xc5d00) 

-- WriteReq [bc4c8:bc4cb] Hit -- Blk --state: f (M) valid: 1 writable: 1 readable: 1 dirty: 1 | tag: 0x2f1 set: 0x3 way: 0 Latency: 2 

-- ReadReq [cc0:cff] IF Hit -- Blk --state: 7 (E) valid: 1 writable: 1 readable: 1 dirty: 0 | tag: 0x3 set: 0x3 way: 0 Latency: 2 

-- Tick (139931000) -- ISN: (86344) : L from (0x7fffffffed00) -- of Size = (4) -- vaddr (0x7fffffffed00) -- paddr (0xc5d00) 

-- WriteReq [c5d00:c5d03] Hit -- Blk --state: f (M) valid: 1 writable: 1 readable: 1 dirty: 1 | tag: 0x317 set: 0x4 way: 0 Latency: 2 

-- ReadReq [d00:d3f] IF Hit -- Blk --state: 7 (E) valid: 1 writable: 1 readable: 1 dirty: 0 | tag: 0x3 set: 0x4 way: 0 Latency: 2 

-- Tick (139932000) -- ISN: (86343) : S -> (0x0) at (0x6bc504) -- Size = (4) -- vaddr (0x6bc504) -- paddr (0xbc504) 

-- WriteReq [bc4cc:bc4cf] Hit -- Blk --state: f (M) valid: 1 writable: 1 readable: 1 dirty: 1 | tag: 0x2f1 set: 0x3 way: 0 Latency: 2 

-- Tick (139932500) -- ISN: (86347) : S -> (0x32) at (0x7fffffffed00) -- Size = (4) -- vaddr (0x7fffffffed00) -- paddr (0xc5d00) 

-- ReadReq [cc0:cff] IF Hit -- Blk --state: 7 (E) valid: 1 writable: 1 readable: 1 dirty: 0 | tag: 0x3 set: 0x3 way: 0 Latency: 2 

-- Tick (139933000) -- ISN: (86348) : L from (0x7fffffffed00) -- of Size = (4) -- vaddr (0x7fffffffed00) -- paddr (0xc5d00) 

-- Tick (139933000) -- ISN: (86354) : L from (0x7fffffffed00) -- of Size = (4) -- vaddr (0x7fffffffed00) -- paddr (0xc5d00) 

-- Tick (139933000) -- ISN: (86361) : L from (0x7fffffffed00) -- of Size = (4) -- vaddr (0x7fffffffed00) -- paddr (0xc5d00) 

-- WriteReq [c5d00:c5d03] Hit -- Blk --state: f (M) valid: 1 writable: 1 readable: 1 dirty: 1 | tag: 0x317 set: 0x4 way: 0 Latency: 2 

-- ReadReq [d00:d3f] IF Hit -- Blk --state: 7 (E) valid: 1 writable: 1 readable: 1 dirty: 0 | tag: 0x3 set: 0x4 way: 0 Latency: 2 

-- WriteReq [bc4d0:bc4d3] Hit -- Blk --state: f (M) valid: 1 writable: 1 readable: 1 dirty: 1 | tag: 0x2f1 set: 0x3 way: 0 Latency: 2 

-- Tick (139934500) -- ISN: (86364) : S -> (0x33) at (0x7fffffffed00) -- Size = (4) -- vaddr (0x7fffffffed00) -- paddr (0xc5d00) 

-- Tick (139935000) -- ISN: (86360) : S -> (0x0) at (0x6bc508) -- Size = (4) -- vaddr (0x6bc508) -- paddr (0xbc508) 

-- Tick (139935000) -- ISN: (86365) : L from (0x7fffffffed00) -- of Size = (4) -- vaddr (0x7fffffffed00) -- paddr (0xc5d00) 

-- Tick (139935000) -- ISN: (86371) : L from (0x7fffffffed00) -- of Size = (4) -- vaddr (0x7fffffffed00) -- paddr (0xc5d00) 

-- Tick (139935000) -- ISN: (86378) : L from (0x7fffffffed00) -- of Size = (4) -- vaddr (0x7fffffffed00) -- paddr (0xc5d00) 

-- WriteReq [c5d00:c5d03] Hit -- Blk --state: f (M) valid: 1 writable: 1 readable: 1 dirty: 1 | tag: 0x317 set: 0x4 way: 0 Latency: 2 

-- ReadReq [cc0:cff] IF Hit -- Blk --state: 7 (E) valid: 1 writable: 1 readable: 1 dirty: 0 | tag: 0x3 set: 0x3 way: 0 Latency: 2 

-- WriteReq [bc4d4:bc4d7] Hit -- Blk --state: f (M) valid: 1 writable: 1 readable: 1 dirty: 1 | tag: 0x2f1 set: 0x3 way: 0 Latency: 2 

-- ReadReq [d00:d3f] IF Hit -- Blk --state: 7 (E) valid: 1 writable: 1 readable: 1 dirty: 0 | tag: 0x3 set: 0x4 way: 0 Latency: 2 

-- Tick (139936500) -- ISN: (86381) : S -> (0x34) at (0x7fffffffed00) -- Size = (4) -- vaddr (0x7fffffffed00) -- paddr (0xc5d00) 

-- Tick (139937000) -- ISN: (86377) : S -> (0x0) at (0x6bc50c) -- Size = (4) -- vaddr (0x6bc50c) -- paddr (0xbc50c) 

-- Tick (139937000) -- ISN: (86382) : L from (0x7fffffffed00) -- of Size = (4) -- vaddr (0x7fffffffed00) -- paddr (0xc5d00) 

-- Tick (139937000) -- ISN: (86388) : L from (0x7fffffffed00) -- of Size = (4) -- vaddr (0x7fffffffed00) -- paddr (0xc5d00) 

-- Tick (139937000) -- ISN: (86395) : L from (0x7fffffffed00) -- of Size = (4) -- vaddr (0x7fffffffed00) -- paddr (0xc5d00) 

-- WriteReq [c5d00:c5d03] Hit -- Blk --state: f (M) valid: 1 writable: 1 readable: 1 dirty: 1 | tag: 0x317 set: 0x4 way: 0 Latency: 2 

-- ReadReq [cc0:cff] IF Hit -- Blk --state: 7 (E) valid: 1 writable: 1 readable: 1 dirty: 0 | tag: 0x3 set: 0x3 way: 0 Latency: 2 

-- WriteReq [bc4d8:bc4db] Hit -- Blk --state: f (M) valid: 1 writable: 1 readable: 1 dirty: 1 | tag: 0x2f1 set: 0x3 way: 0 Latency: 2 

-- Tick (139938500) -- ISN: (86398) : S -> (0x35) at (0x7fffffffed00) -- Size = (4) -- vaddr (0x7fffffffed00) -- paddr (0xc5d00) 

-- ReadReq [d00:d3f] IF Hit -- Blk --state: 7 (E) valid: 1 writable: 1 readable: 1 dirty: 0 | tag: 0x3 set: 0x4 way: 0 Latency: 2 

-- Tick (139939000) -- ISN: (86394) : S -> (0x0) at (0x6bc510) -- Size = (4) -- vaddr (0x6bc510) -- paddr (0xbc510) 

-- Tick (139939000) -- ISN: (86399) : L from (0x7fffffffed00) -- of Size = (4) -- vaddr (0x7fffffffed00) -- paddr (0xc5d00) 

-- Tick (139939000) -- ISN: (86405) : L from (0x7fffffffed00) -- of Size = (4) -- vaddr (0x7fffffffed00) -- paddr (0xc5d00) 

-- Tick (139939000) -- ISN: (86412) : L from (0x7fffffffed00) -- of Size = (4) -- vaddr (0x7fffffffed00) -- paddr (0xc5d00) 

-- WriteReq [c5d00:c5d03] Hit -- Blk --state: f (M) valid: 1 writable: 1 readable: 1 dirty: 1 | tag: 0x317 set: 0x4 way: 0 Latency: 2 

-- WriteReq [bc4dc:bc4df] Hit -- Blk --state: f (M) valid: 1 writable: 1 readable: 1 dirty: 1 | tag: 0x2f1 set: 0x3 way: 0 Latency: 2 

-- ReadReq [cc0:cff] IF Hit -- Blk --state: 7 (E) valid: 1 writable: 1 readable: 1 dirty: 0 | tag: 0x3 set: 0x3 way: 0 Latency: 2 

-- Tick (139940500) -- ISN: (86415) : S -> (0x36) at (0x7fffffffed00) -- Size = (4) -- vaddr (0x7fffffffed00) -- paddr (0xc5d00) 

-- Tick (139941000) -- ISN: (86411) : S -> (0x0) at (0x6bc514) -- Size = (4) -- vaddr (0x6bc514) -- paddr (0xbc514) 

-- Tick (139941000) -- ISN: (86416) : L from (0x7fffffffed00) -- of Size = (4) -- vaddr (0x7fffffffed00) -- paddr (0xc5d00) 

-- Tick (139941000) -- ISN: (86422) : L from (0x7fffffffed00) -- of Size = (4) -- vaddr (0x7fffffffed00) -- paddr (0xc5d00) 

-- Tick (139941000) -- ISN: (86429) : L from (0x7fffffffed00) -- of Size = (4) -- vaddr (0x7fffffffed00) -- paddr (0xc5d00) 

-- WriteReq [c5d00:c5d03] Hit -- Blk --state: f (M) valid: 1 writable: 1 readable: 1 dirty: 1 | tag: 0x317 set: 0x4 way: 0 Latency: 2 

-- ReadReq [d00:d3f] IF Hit -- Blk --state: 7 (E) valid: 1 writable: 1 readable: 1 dirty: 0 | tag: 0x3 set: 0x4 way: 0 Latency: 2 

-- WriteReq [bc4e0:bc4e3] Hit -- Blk --state: f (M) valid: 1 writable: 1 readable: 1 dirty: 1 | tag: 0x2f1 set: 0x3 way: 0 Latency: 2 

-- Tick (139942500) -- ISN: (86432) : S -> (0x37) at (0x7fffffffed00) -- Size = (4) -- vaddr (0x7fffffffed00) -- paddr (0xc5d00) 

-- ReadReq [cc0:cff] IF Hit -- Blk --state: 7 (E) valid: 1 writable: 1 readable: 1 dirty: 0 | tag: 0x3 set: 0x3 way: 0 Latency: 2 

-- Tick (139943000) -- ISN: (86428) : S -> (0x0) at (0x6bc518) -- Size = (4) -- vaddr (0x6bc518) -- paddr (0xbc518) 

-- Tick (139943000) -- ISN: (86433) : L from (0x7fffffffed00) -- of Size = (4) -- vaddr (0x7fffffffed00) -- paddr (0xc5d00) 

-- Tick (139943000) -- ISN: (86439) : L from (0x7fffffffed00) -- of Size = (4) -- vaddr (0x7fffffffed00) -- paddr (0xc5d00) 

-- WriteReq [c5d00:c5d03] Hit -- Blk --state: f (M) valid: 1 writable: 1 readable: 1 dirty: 1 | tag: 0x317 set: 0x4 way: 0 Latency: 2 

-- Tick (139943500) -- ISN: (86446) : L from (0x7fffffffed00) -- of Size = (4) -- vaddr (0x7fffffffed00) -- paddr (0xc5d00) 

-- ReadReq [d00:d3f] IF Hit -- Blk --state: 7 (E) valid: 1 writable: 1 readable: 1 dirty: 0 | tag: 0x3 set: 0x4 way: 0 Latency: 2 

-- WriteReq [bc4e4:bc4e7] Hit -- Blk --state: f (M) valid: 1 writable: 1 readable: 1 dirty: 1 | tag: 0x2f1 set: 0x3 way: 0 Latency: 2 

-- Tick (139945000) -- ISN: (86445) : S -> (0x0) at (0x6bc51c) -- Size = (4) -- vaddr (0x6bc51c) -- paddr (0xbc51c) 

-- Tick (139945000) -- ISN: (86449) : S -> (0x38) at (0x7fffffffed00) -- Size = (4) -- vaddr (0x7fffffffed00) -- paddr (0xc5d00) 

-- WriteReq [c5d00:c5d03] Hit -- Blk --state: f (M) valid: 1 writable: 1 readable: 1 dirty: 1 | tag: 0x317 set: 0x4 way: 0 Latency: 2 

-- ReadReq [cc0:cff] IF Hit -- Blk --state: 7 (E) valid: 1 writable: 1 readable: 1 dirty: 0 | tag: 0x3 set: 0x3 way: 0 Latency: 2 

-- Tick (139945500) -- ISN: (86450) : L from (0x7fffffffed00) -- of Size = (4) -- vaddr (0x7fffffffed00) -- paddr (0xc5d00) 

-- Tick (139945500) -- ISN: (86456) : L from (0x7fffffffed00) -- of Size = (4) -- vaddr (0x7fffffffed00) -- paddr (0xc5d00) 

-- Tick (139945500) -- ISN: (86463) : L from (0x7fffffffed00) -- of Size = (4) -- vaddr (0x7fffffffed00) -- paddr (0xc5d00) 

-- WriteReq [bc4e8:bc4eb] Hit -- Blk --state: f (M) valid: 1 writable: 1 readable: 1 dirty: 1 | tag: 0x2f1 set: 0x3 way: 0 Latency: 2 

-- ReadReq [d00:d3f] IF Hit -- Blk --state: 7 (E) valid: 1 writable: 1 readable: 1 dirty: 0 | tag: 0x3 set: 0x4 way: 0 Latency: 2 

-- Tick (139947000) -- ISN: (86466) : S -> (0x39) at (0x7fffffffed00) -- Size = (4) -- vaddr (0x7fffffffed00) -- paddr (0xc5d00) 

-- WriteReq [c5d00:c5d03] Hit -- Blk --state: f (M) valid: 1 writable: 1 readable: 1 dirty: 1 | tag: 0x317 set: 0x4 way: 0 Latency: 2 

-- Tick (139947500) -- ISN: (86462) : S -> (0x0) at (0x6bc520) -- Size = (4) -- vaddr (0x6bc520) -- paddr (0xbc520) 

-- Tick (139947500) -- ISN: (86467) : L from (0x7fffffffed00) -- of Size = (4) -- vaddr (0x7fffffffed00) -- paddr (0xc5d00) 

-- Tick (139947500) -- ISN: (86473) : L from (0x7fffffffed00) -- of Size = (4) -- vaddr (0x7fffffffed00) -- paddr (0xc5d00) 

-- Tick (139947500) -- ISN: (86480) : L from (0x7fffffffed00) -- of Size = (4) -- vaddr (0x7fffffffed00) -- paddr (0xc5d00) 

-- ReadReq [cc0:cff] IF Hit -- Blk --state: 7 (E) valid: 1 writable: 1 readable: 1 dirty: 0 | tag: 0x3 set: 0x3 way: 0 Latency: 2 

-- WriteReq [bc4ec:bc4ef] Hit -- Blk --state: f (M) valid: 1 writable: 1 readable: 1 dirty: 1 | tag: 0x2f1 set: 0x3 way: 0 Latency: 2 

-- ReadReq [d00:d3f] IF Hit -- Blk --state: 7 (E) valid: 1 writable: 1 readable: 1 dirty: 0 | tag: 0x3 set: 0x4 way: 0 Latency: 2 

-- Tick (139949000) -- ISN: (86483) : S -> (0x3a) at (0x7fffffffed00) -- Size = (4) -- vaddr (0x7fffffffed00) -- paddr (0xc5d00) 

-- WriteReq [c5d00:c5d03] Hit -- Blk --state: f (M) valid: 1 writable: 1 readable: 1 dirty: 1 | tag: 0x317 set: 0x4 way: 0 Latency: 2 

-- Tick (139949500) -- ISN: (86479) : S -> (0x0) at (0x6bc524) -- Size = (4) -- vaddr (0x6bc524) -- paddr (0xbc524) 

-- Tick (139949500) -- ISN: (86484) : L from (0x7fffffffed00) -- of Size = (4) -- vaddr (0x7fffffffed00) -- paddr (0xc5d00) 

-- Tick (139949500) -- ISN: (86490) : L from (0x7fffffffed00) -- of Size = (4) -- vaddr (0x7fffffffed00) -- paddr (0xc5d00) 

-- Tick (139950000) -- ISN: (86497) : L from (0x7fffffffed00) -- of Size = (4) -- vaddr (0x7fffffffed00) -- paddr (0xc5d00) 

-- WriteReq [bc4f0:bc4f3] Hit -- Blk --state: f (M) valid: 1 writable: 1 readable: 1 dirty: 1 | tag: 0x2f1 set: 0x3 way: 0 Latency: 2 

-- ReadReq [cc0:cff] IF Hit -- Blk --state: 7 (E) valid: 1 writable: 1 readable: 1 dirty: 0 | tag: 0x3 set: 0x3 way: 0 Latency: 2 

-- WriteReq [c5d00:c5d03] Hit -- Blk --state: f (M) valid: 1 writable: 1 readable: 1 dirty: 1 | tag: 0x317 set: 0x4 way: 0 Latency: 2 

-- ReadReq [d00:d3f] IF Hit -- Blk --state: 7 (E) valid: 1 writable: 1 readable: 1 dirty: 0 | tag: 0x3 set: 0x4 way: 0 Latency: 2 

-- Tick (139951500) -- ISN: (86496) : S -> (0x0) at (0x6bc528) -- Size = (4) -- vaddr (0x6bc528) -- paddr (0xbc528) 

-- Tick (139951500) -- ISN: (86500) : S -> (0x3b) at (0x7fffffffed00) -- Size = (4) -- vaddr (0x7fffffffed00) -- paddr (0xc5d00) 

-- Tick (139952000) -- ISN: (86501) : L from (0x7fffffffed00) -- of Size = (4) -- vaddr (0x7fffffffed00) -- paddr (0xc5d00) 

-- Tick (139952000) -- ISN: (86507) : L from (0x7fffffffed00) -- of Size = (4) -- vaddr (0x7fffffffed00) -- paddr (0xc5d00) 

-- WriteReq [bc4f4:bc4f7] Hit -- Blk --state: f (M) valid: 1 writable: 1 readable: 1 dirty: 1 | tag: 0x2f1 set: 0x3 way: 0 Latency: 2 

-- Tick (139952500) -- ISN: (86514) : L from (0x7fffffffed00) -- of Size = (4) -- vaddr (0x7fffffffed00) -- paddr (0xc5d00) 

-- ReadReq [cc0:cff] IF Hit -- Blk --state: 7 (E) valid: 1 writable: 1 readable: 1 dirty: 0 | tag: 0x3 set: 0x3 way: 0 Latency: 2 

-- WriteReq [c5d00:c5d03] Hit -- Blk --state: f (M) valid: 1 writable: 1 readable: 1 dirty: 1 | tag: 0x317 set: 0x4 way: 0 Latency: 2 

-- ReadReq [d00:d3f] IF Hit -- Blk --state: 7 (E) valid: 1 writable: 1 readable: 1 dirty: 0 | tag: 0x3 set: 0x4 way: 0 Latency: 2 

-- Tick (139954000) -- ISN: (86513) : S -> (0x0) at (0x6bc52c) -- Size = (4) -- vaddr (0x6bc52c) -- paddr (0xbc52c) 

-- Tick (139954000) -- ISN: (86517) : S -> (0x3c) at (0x7fffffffed00) -- Size = (4) -- vaddr (0x7fffffffed00) -- paddr (0xc5d00) 

-- WriteReq [bc4f8:bc4fb] Hit -- Blk --state: f (M) valid: 1 writable: 1 readable: 1 dirty: 1 | tag: 0x2f1 set: 0x3 way: 0 Latency: 2 

-- Tick (139954500) -- ISN: (86518) : L from (0x7fffffffed00) -- of Size = (4) -- vaddr (0x7fffffffed00) -- paddr (0xc5d00) 

-- Tick (139954500) -- ISN: (86524) : L from (0x7fffffffed00) -- of Size = (4) -- vaddr (0x7fffffffed00) -- paddr (0xc5d00) 

-- Tick (139955000) -- ISN: (86531) : L from (0x7fffffffed00) -- of Size = (4) -- vaddr (0x7fffffffed00) -- paddr (0xc5d00) 

-- WriteReq [c5d00:c5d03] Hit -- Blk --state: f (M) valid: 1 writable: 1 readable: 1 dirty: 1 | tag: 0x317 set: 0x4 way: 0 Latency: 2 

-- ReadReq [cc0:cff] IF Hit -- Blk --state: 7 (E) valid: 1 writable: 1 readable: 1 dirty: 0 | tag: 0x3 set: 0x3 way: 0 Latency: 2 

-- WriteReq [bc4fc:bc4ff] Hit -- Blk --state: f (M) valid: 1 writable: 1 readable: 1 dirty: 1 | tag: 0x2f1 set: 0x3 way: 0 Latency: 2 

-- ReadReq [d00:d3f] IF Hit -- Blk --state: 7 (E) valid: 1 writable: 1 readable: 1 dirty: 0 | tag: 0x3 set: 0x4 way: 0 Latency: 2 

-- Tick (139956500) -- ISN: (86530) : S -> (0x0) at (0x6bc530) -- Size = (4) -- vaddr (0x6bc530) -- paddr (0xbc530) 

-- Tick (139956500) -- ISN: (86534) : S -> (0x3d) at (0x7fffffffed00) -- Size = (4) -- vaddr (0x7fffffffed00) -- paddr (0xc5d00) 

-- Tick (139957000) -- ISN: (86535) : L from (0x7fffffffed00) -- of Size = (4) -- vaddr (0x7fffffffed00) -- paddr (0xc5d00) 

-- Tick (139957000) -- ISN: (86541) : L from (0x7fffffffed00) -- of Size = (4) -- vaddr (0x7fffffffed00) -- paddr (0xc5d00) 

-- WriteReq [c5d00:c5d03] Hit -- Blk --state: f (M) valid: 1 writable: 1 readable: 1 dirty: 1 | tag: 0x317 set: 0x4 way: 0 Latency: 2 

-- Tick (139957500) -- ISN: (86548) : L from (0x7fffffffed00) -- of Size = (4) -- vaddr (0x7fffffffed00) -- paddr (0xc5d00) 

-- ReadReq [cc0:cff] IF Hit -- Blk --state: 7 (E) valid: 1 writable: 1 readable: 1 dirty: 0 | tag: 0x3 set: 0x3 way: 0 Latency: 2 

-- WriteReq [bc500:bc503] Miss --  Latency: 502 

[...]

-- ReadReq [bc8a0:bc8a3] Hit -- Blk --state: 7 (E) valid: 1 writable: 1 readable: 1 dirty: 0 | tag: 0x2f2 set: 0x2 way: 0 Latency: 2 

-- Tick (164444000) -- ISN: (131438) : S -> (0xc0) at (0x7fffffffecec) -- Size = (4) -- vaddr (0x7fffffffecec) -- paddr (0xc5cec) 

-- Tick (164444500) -- ISN: (131440) : L from (0x7fffffffecec) -- of Size = (4) -- vaddr (0x7fffffffecec) -- paddr (0xc5cec) 

-- Tick (164444500) -- ISN: (131445) : L from (0x7fffffffecec) -- of Size = (4) -- vaddr (0x7fffffffecec) -- paddr (0xc5cec) 

-- ReadReq [bc0:bff] IF Hit -- Blk --state: 7 (E) valid: 1 writable: 1 readable: 1 dirty: 0 | tag: 0x2 set: 0xf way: 0 Latency: 2 

-- Tick (164445000) -- ISN: (131434) : S -> (0x0) at (0x6bc424) -- Size = (4) -- vaddr (0x6bc424) -- paddr (0xbc424) 

-- Tick (164445500) -- ISN: (131454) : L from (0x7fffffffecec) -- of Size = (4) -- vaddr (0x7fffffffecec) -- paddr (0xc5cec) 

-- Tick (164446000) -- ISN: (131380) : S -> (0x0) at (0x6bc424) -- Size = (4) -- vaddr (0x6bc424) -- paddr (0xbc424) 

-- ReadReq [b80:bbf] IF Hit -- Blk --state: 7 (E) valid: 1 writable: 1 readable: 1 dirty: 0 | tag: 0x2 set: 0xe way: 0 Latency: 2 

-- Tick (164446500) -- ISN: (131450) : L from (0x6bc8e0) -- of Size = (4) -- vaddr (0x6bc8e0) -- paddr (0xbc8e0) 

-- ReadReq [bc8e0:bc8e3] Miss --  Latency: 502 

-- Tick (164447000) -- ISN: (131456) : S -> (0xd0) at (0x7fffffffecec) -- Size = (4) -- vaddr (0x7fffffffecec) -- paddr (0xc5cec) 

-- Tick (164447500) -- ISN: (131458) : L from (0x7fffffffecec) -- of Size = (4) -- vaddr (0x7fffffffecec) -- paddr (0xc5cec) 

-- Tick (164447500) -- ISN: (131463) : L from (0x7fffffffecec) -- of Size = (4) -- vaddr (0x7fffffffecec) -- paddr (0xc5cec) 

-- ReadReq [bc0:bff] IF Hit -- Blk --state: 7 (E) valid: 1 writable: 1 readable: 1 dirty: 0 | tag: 0x2 set: 0xf way: 0 Latency: 2 

-- WriteReq [bc424:bc427] Hit -- Blk --state: f (M) valid: 1 writable: 1 readable: 1 dirty: 1 | tag: 0x2f1 set: 0 way: 0 Latency: 2 

-- Tick (164448500) -- ISN: (131472) : L from (0x7fffffffecec) -- of Size = (4) -- vaddr (0x7fffffffecec) -- paddr (0xc5cec) 

-- WriteReq [c5cec:c5cef] Hit -- Blk --state: f (M) valid: 1 writable: 1 readable: 1 dirty: 1 | tag: 0x317 set: 0x3 way: 0 Latency: 2 

-- ReadReq [b80:bbf] IF Hit -- Blk --state: 7 (E) valid: 1 writable: 1 readable: 1 dirty: 0 | tag: 0x2 set: 0xe way: 0 Latency: 2 

-- Tick (164449500) -- ISN: (131468) : L from (0x6bc920) -- of Size = (4) -- vaddr (0x6bc920) -- paddr (0xbc920) 

-- ReadReq [bc920:bc923] Miss --  Latency: 502 

-- Tick (164450000) -- ISN: (131474) : S -> (0xe0) at (0x7fffffffecec) -- Size = (4) -- vaddr (0x7fffffffecec) -- paddr (0xc5cec) 

-- Tick (164450500) -- ISN: (131476) : L from (0x7fffffffecec) -- of Size = (4) -- vaddr (0x7fffffffecec) -- paddr (0xc5cec) 

-- Tick (164450500) -- ISN: (131481) : L from (0x7fffffffecec) -- of Size = (4) -- vaddr (0x7fffffffecec) -- paddr (0xc5cec) 

-- ReadReq [bc0:bff] IF Hit -- Blk --state: 7 (E) valid: 1 writable: 1 readable: 1 dirty: 0 | tag: 0x2 set: 0xf way: 0 Latency: 2 

-- Tick (164451500) -- ISN: (131490) : L from (0x7fffffffecec) -- of Size = (4) -- vaddr (0x7fffffffecec) -- paddr (0xc5cec) 

-- ReadReq [b80:bbf] IF Hit -- Blk --state: 7 (E) valid: 1 writable: 1 readable: 1 dirty: 0 | tag: 0x2 set: 0xe way: 0 Latency: 2 

-- Tick (164452500) -- ISN: (131486) : L from (0x6bc960) -- of Size = (4) -- vaddr (0x6bc960) -- paddr (0xbc960) 

-- Tick (164453000) -- ISN: (131492) : S -> (0xf0) at (0x7fffffffecec) -- Size = (4) -- vaddr (0x7fffffffecec) -- paddr (0xc5cec) 

-- Tick (164453500) -- ISN: (131494) : L from (0x7fffffffecec) -- of Size = (4) -- vaddr (0x7fffffffecec) -- paddr (0xc5cec) 

-- Tick (164453500) -- ISN: (131499) : L from (0x7fffffffecec) -- of Size = (4) -- vaddr (0x7fffffffecec) -- paddr (0xc5cec) 

-- ReadReq [bc0:bff] IF Hit -- Blk --state: 7 (E) valid: 1 writable: 1 readable: 1 dirty: 0 | tag: 0x2 set: 0xf way: 0 Latency: 2 

-- Tick (164454500) -- ISN: (131508) : L from (0x7fffffffecec) -- of Size = (4) -- vaddr (0x7fffffffecec) -- paddr (0xc5cec) 

-- Tick (164455000) -- ISN: (131486) : L from (0x6bc960) -- of Size = (4) -- vaddr (0x6bc960) -- paddr (0xbc960) 

-- ReadReq [bc960:bc963] Hit -- Blk --state: 7 (E) valid: 1 writable: 1 readable: 1 dirty: 0 | tag: 0x2f2 set: 0x5 way: 0 Latency: 2 

-- ReadReq [b80:bbf] IF Hit -- Blk --state: 7 (E) valid: 1 writable: 1 readable: 1 dirty: 0 | tag: 0x2 set: 0xe way: 0 Latency: 2 

-- Tick (164455500) -- ISN: (131504) : L from (0x6bc9a0) -- of Size = (4) -- vaddr (0x6bc9a0) -- paddr (0xbc9a0) 

-- ReadReq [bc9a0:bc9a3] Hit -- Blk --state: 7 (E) valid: 1 writable: 1 readable: 1 dirty: 0 | tag: 0x2f2 set: 0x6 way: 0 Latency: 2 

-- Tick (164456000) -- ISN: (131398) : S -> (0x0) at (0x6bc424) -- Size = (4) -- vaddr (0x6bc424) -- paddr (0xbc424) 

-- Tick (164456000) -- ISN: (131510) : S -> (0x0) at (0x7fffffffecec) -- Size = (4) -- vaddr (0x7fffffffecec) -- paddr (0xc5cec) 

-- Tick (164456500) -- ISN: (131488) : S -> (0x0) at (0x6bc424) -- Size = (4) -- vaddr (0x6bc424) -- paddr (0xbc424) 

-- Tick (164456500) -- ISN: (131512) : L from (0x7fffffffecec) -- of Size = (4) -- vaddr (0x7fffffffecec) -- paddr (0xc5cec) 

-- Tick (164456500) -- ISN: (131517) : L from (0x7fffffffecec) -- of Size = (4) -- vaddr (0x7fffffffecec) -- paddr (0xc5cec) 

-- ReadReq [bc0:bff] IF Hit -- Blk --state: 7 (E) valid: 1 writable: 1 readable: 1 dirty: 0 | tag: 0x2 set: 0xf way: 0 Latency: 2 

-- Tick (164457000) -- ISN: (131506) : S -> (0x0) at (0x6bc424) -- Size = (4) -- vaddr (0x6bc424) -- paddr (0xbc424) 

-- Tick (164457500) -- ISN: (131526) : L from (0x7fffffffecec) -- of Size = (4) -- vaddr (0x7fffffffecec) -- paddr (0xc5cec) 

-- WriteReq [bc424:bc427] Miss --  Latency: 502 

-- ReadReq [b80:bbf] IF Hit -- Blk --state: 7 (E) valid: 1 writable: 1 readable: 1 dirty: 0 | tag: 0x2 set: 0xe way: 0 Latency: 2 

-- Tick (164458500) -- ISN: (131522) : L from (0x6bc9e0) -- of Size = (4) -- vaddr (0x6bc9e0) -- paddr (0xbc9e0) 

-- Sqsh -> ISN (131516)

-- ReadReq [bc0:bff] IF Hit -- Blk --state: 7 (E) valid: 1 writable: 1 readable: 1 dirty: 0 | tag: 0x2 set: 0xf way: 0 Latency: 2 

-- ReadReq [d40:d7f] IF Hit -- Blk --state: 7 (E) valid: 1 writable: 1 readable: 1 dirty: 0 | tag: 0x3 set: 0x5 way: 0 Latency: 2 

-- ReadReq [d80:dbf] IF Hit -- Blk --state: 7 (E) valid: 1 writable: 1 readable: 1 dirty: 0 | tag: 0x3 set: 0x6 way: 0 Latency: 2 

-- Tick (164464000) -- ISN: (131554) : L from (0x7fffffffecf0) -- of Size = (8) -- vaddr (0x7fffffffecf0) -- paddr (0xc5cf0) 

-- Tick (164464500) -- ISN: (131557) : L from (0x7fffffffecf8) -- of Size = (8) -- vaddr (0x7fffffffecf8) -- paddr (0xc5cf8) 

-- Tick (164465500) -- ISN: (131561) : L from (0x6bc7e0) -- of Size = (4) -- vaddr (0x6bc7e0) -- paddr (0xbc7e0) 

-- Tick (164465500) -- ISN: (131565) : L from (0x6bc820) -- of Size = (4) -- vaddr (0x6bc820) -- paddr (0xbc820) 

-- Tick (164466000) -- ISN: (131569) : L from (0x6bc5e4) -- of Size = (4) -- vaddr (0x6bc5e4) -- paddr (0xbc5e4) 

-- Tick (164466000) -- ISN: (131575) : S -> (0x7a) at (0x7fffffffecf8) -- Size = (8) -- vaddr (0x7fffffffecf8) -- paddr (0xc5cf8) 

-- Tick (164466500) -- ISN: (131582) : S -> (0x89) at (0x7fffffffecf0) -- Size = (8) -- vaddr (0x7fffffffecf0) -- paddr (0xc5cf0) 

-- Sqsh -> ISN (131577)

-- ReadReq [b40:b7f] IF Hit -- Blk --state: 7 (E) valid: 1 writable: 1 readable: 1 dirty: 0 | tag: 0x2 set: 0xd way: 0 Latency: 2 

-- Tick (164468000) -- ISN: (131554) : L from (0x7fffffffecf0) -- of Size = (8) -- vaddr (0x7fffffffecf0) -- paddr (0xc5cf0) 

-- ReadReq [c5cf0:c5cf7] Miss --  Latency: 502 

-- Tick (164468000) -- ISN: (131557) : L from (0x7fffffffecf8) -- of Size = (8) -- vaddr (0x7fffffffecf8) -- paddr (0xc5cf8) 

-- Tick (164468000) -- ISN: (131561) : L from (0x6bc7e0) -- of Size = (4) -- vaddr (0x6bc7e0) -- paddr (0xbc7e0) 

-- Tick (164468000) -- ISN: (131565) : L from (0x6bc820) -- of Size = (4) -- vaddr (0x6bc820) -- paddr (0xbc820) 

-- Tick (164468500) -- ISN: (131569) : L from (0x6bc5e4) -- of Size = (4) -- vaddr (0x6bc5e4) -- paddr (0xbc5e4) 

-- ReadReq [b80:bbf] IF Hit -- Blk --state: 7 (E) valid: 1 writable: 1 readable: 1 dirty: 0 | tag: 0x2 set: 0xe way: 0 Latency: 2 

-- ReadReq [d40:d7f] IF Hit -- Blk --state: 7 (E) valid: 1 writable: 1 readable: 1 dirty: 0 | tag: 0x3 set: 0x5 way: 0 Latency: 2 

-- ReadReq [d80:dbf] IF Hit -- Blk --state: 7 (E) valid: 1 writable: 1 readable: 1 dirty: 0 | tag: 0x3 set: 0x6 way: 0 Latency: 2 

-- Tick (164472000) -- ISN: (131638) : L from (0x6b90f0) -- of Size = (4) -- vaddr (0x6b90f0) -- paddr (0xb90f0) 

-- Tick (164476000) -- ISN: (131671) : S -> (0x89) at (0x7fffffffecf8) -- Size = (8) -- vaddr (0x7fffffffecf8) -- paddr (0xc5cf8) 

-- Tick (164476000) -- ISN: (131682) : L from (0x6c58a8) -- of Size = (8) -- vaddr (0x6c58a8) -- paddr (0xc78a8) 

-- Tick (164476500) -- ISN: (131677) : S -> (0x93) at (0x7fffffffecf0) -- Size = (8) -- vaddr (0x7fffffffecf0) -- paddr (0xc5cf0) 

-- Sqsh -> ISN (131673)

-- ReadReq [dc0:dff] IF Hit -- Blk --state: 7 (E) valid: 1 writable: 1 readable: 1 dirty: 0 | tag: 0x3 set: 0x7 way: 0 Latency: 2 

-- ReadReq [d80:dbf] IF Hit -- Blk --state: 7 (E) valid: 1 writable: 1 readable: 1 dirty: 0 | tag: 0x3 set: 0x6 way: 0 Latency: 2 

-- Tick (164481000) -- ISN: (131557) : L from (0x7fffffffecf8) -- of Size = (8) -- vaddr (0x7fffffffecf8) -- paddr (0xc5cf8) 

-- ReadReq [c5cf8:c5cff] Miss --  Latency: 502 

-- Tick (164481000) -- ISN: (131561) : L from (0x6bc7e0) -- of Size = (4) -- vaddr (0x6bc7e0) -- paddr (0xbc7e0) 

-- ReadReq [bc7e0:bc7e3] Hit -- Blk --state: 7 (E) valid: 1 writable: 1 readable: 1 dirty: 0 | tag: 0x2f1 set: 0xf way: 0 Latency: 2 

-- Tick (164481000) -- ISN: (131565) : L from (0x6bc820) -- of Size = (4) -- vaddr (0x6bc820) -- paddr (0xbc820) 

-- ReadReq [bc820:bc823] Miss --  Latency: 502 

-- Tick (164481000) -- ISN: (131569) : L from (0x6bc5e4) -- of Size = (4) -- vaddr (0x6bc5e4) -- paddr (0xbc5e4) 

-- Tick (164481500) -- ISN: (131638) : L from (0x6b90f0) -- of Size = (4) -- vaddr (0x6b90f0) -- paddr (0xb90f0) 

-- Tick (164482500) -- ISN: (131563) : S -> (0x0) at (0x6bc424) -- Size = (4) -- vaddr (0x6bc424) -- paddr (0xbc424) 

-- WriteReq [c5cec:c5cef] Hit -- Blk --state: 7 (E) valid: 1 writable: 1 readable: 1 dirty: 0 | tag: 0x317 set: 0x3 way: 0 Latency: 2 

-- Tick (164494000) -- ISN: (131569) : L from (0x6bc5e4) -- of Size = (4) -- vaddr (0x6bc5e4) -- paddr (0xbc5e4) 

-- ReadReq [bc5e4:bc5e7] Hit -- Blk --state: 7 (E) valid: 1 writable: 1 readable: 1 dirty: 0 | tag: 0x2f1 set: 0x7 way: 0 Latency: 2 

-- Tick (164494000) -- ISN: (131638) : L from (0x6b90f0) -- of Size = (4) -- vaddr (0x6b90f0) -- paddr (0xb90f0) 

-- ReadReq [b90f0:b90f3] Miss --  Latency: 502 

-- Tick (164495000) -- ISN: (131633) : S -> (0x10) at (0x7fffffffecf0) -- Size = (8) -- vaddr (0x7fffffffecf0) -- paddr (0xc5cf0) 

-- Tick (164495500) -- ISN: (131571) : S -> (0x1) at (0x6bc424) -- Size = (4) -- vaddr (0x6bc424) -- paddr (0xbc424) 

-- Tick (164495500) -- ISN: (131636) : S -> (0x69) at (0x7fffffffecec) -- Size = (4) -- vaddr (0x7fffffffecec) -- paddr (0xc5cec) 

-- Tick (164495500) -- ISN: (131661) : L from (0x7fffffffecf0) -- of Size = (8) -- vaddr (0x7fffffffecf0) -- paddr (0xc5cf0) 

-- Tick (164495500) -- ISN: (131664) : L from (0x7fffffffecf8) -- of Size = (8) -- vaddr (0x7fffffffecf8) -- paddr (0xc5cf8) 

-- Tick (164496000) -- ISN: (131639) : L from (0x7fffffffecec) -- of Size = (4) -- vaddr (0x7fffffffecec) -- paddr (0xc5cec) 

-- Tick (164496000) -- ISN: (131644) : L from (0x7fffffffecec) -- of Size = (4) -- vaddr (0x7fffffffecec) -- paddr (0xc5cec) 

-- Tick (164498000) -- ISN: (131649) : L from (0x6bc5e4) -- of Size = (4) -- vaddr (0x6bc5e4) -- paddr (0xbc5e4) 

-- WriteReq [bc424:bc427] Hit -- Blk --state: f (M) valid: 1 writable: 1 readable: 1 dirty: 1 | tag: 0x2f1 set: 0 way: 0 Latency: 2 

-- Tick (164499000) -- ISN: (131649) : L from (0x6bc5e4) -- of Size = (4) -- vaddr (0x6bc5e4) -- paddr (0xbc5e4) 

-- ReadReq [bc5e4:bc5e7] Hit -- Blk --state: 7 (E) valid: 1 writable: 1 readable: 1 dirty: 0 | tag: 0x2f1 set: 0x7 way: 0 Latency: 2 

-- Tick (164499500) -- ISN: (131452) : S -> (0x0) at (0x6bc424) -- Size = (4) -- vaddr (0x6bc424) -- paddr (0xbc424) 

-- WriteReq [c5cec:c5cef] Miss --  Latency: 502 

-- Tick (164502000) -- ISN: (131726) : L from (0x7fffffffecf8) -- of Size = (8) -- vaddr (0x7fffffffecf8) -- paddr (0xc5cf8) 

-- ReadReq [1380:13bf] IF Miss --  Latency: 502 

-- Tick (164503500) -- ISN: (131736) : L from (0x7fffffffed08) -- of Size = (8) -- vaddr (0x7fffffffed08) -- paddr (0xc5d08) 

-- Tick (164504000) -- ISN: (131732) : S -> (0x93) at (0x7fffffffecf8) -- Size = (8) -- vaddr (0x7fffffffecf8) -- paddr (0xc5cf8) 

-- Tick (164504000) -- ISN: (131737) : L from (0x6c58a8) -- of Size = (8) -- vaddr (0x6c58a8) -- paddr (0xc78a8) 

-- Sqsh -> ISN (131734)

-- ReadReq [dc0:dff] IF Hit -- Blk --state: 7 (E) valid: 1 writable: 1 readable: 1 dirty: 0 | tag: 0x3 set: 0x7 way: 0 Latency: 2 

-- ReadReq [d80:dbf] IF Hit -- Blk --state: 7 (E) valid: 1 writable: 1 readable: 1 dirty: 0 | tag: 0x3 set: 0x6 way: 0 Latency: 2 

-- ReadReq [1380:13bf] IF Miss --  Latency: 502 

-- WriteReq [bc424:bc427] Hit -- Blk --state: f (M) valid: 1 writable: 1 readable: 1 dirty: 1 | tag: 0x2f1 set: 0 way: 0 Latency: 2 

-- WriteReq [c5cec:c5cef] Hit -- Blk --state: f (M) valid: 1 writable: 1 readable: 1 dirty: 1 | tag: 0x317 set: 0x3 way: 0 Latency: 2 

-- WriteReq [bc424:bc427] Hit -- Blk --state: f (M) valid: 1 writable: 1 readable: 1 dirty: 1 | tag: 0x2f1 set: 0 way: 0 Latency: 2 

-- WriteReq [c5cec:c5cef] Hit -- Blk --state: f (M) valid: 1 writable: 1 readable: 1 dirty: 1 | tag: 0x317 set: 0x3 way: 0 Latency: 2 

-- Tick (164533500) -- ISN: (131470) : S -> (0x0) at (0x6bc424) -- Size = (4) -- vaddr (0x6bc424) -- paddr (0xbc424) 

-- WriteReq [bc424:bc427] Hit -- Blk --state: f (M) valid: 1 writable: 1 readable: 1 dirty: 1 | tag: 0x2f1 set: 0 way: 0 Latency: 2 

-- WriteReq [c5cec:c5cef] Hit -- Blk --state: f (M) valid: 1 writable: 1 readable: 1 dirty: 1 | tag: 0x317 set: 0x3 way: 0 Latency: 2 

-- WriteReq [bc424:bc427] Miss --  Latency: 502 

-- Tick (164538000) -- ISN: (131788) : L from (0x7fffffffecf8) -- of Size = (8) -- vaddr (0x7fffffffecf8) -- paddr (0xc5cf8) 

-- Tick (164538000) -- ISN: (131792) : L from (0x7fffffffed08) -- of Size = (8) -- vaddr (0x7fffffffed08) -- paddr (0xc5d08) 

-- ReadReq [c5d08:c5d0f] Miss --  Latency: 502 

-- Tick (164538000) -- ISN: (131793) : L from (0x6c58a8) -- of Size = (8) -- vaddr (0x6c58a8) -- paddr (0xc78a8) 

-- ReadReq [c78a8:c78af] Miss --  Latency: 502 

-- Tick (164538500) -- ISN: (131567) : S -> (0x0) at (0x6bc424) -- Size = (4) -- vaddr (0x6bc424) -- paddr (0xbc424) 

-- Tick (164539000) -- ISN: (131800) : S -> (0xac) at (0x7fffffffecf8) -- Size = (8) -- vaddr (0x7fffffffecf8) -- paddr (0xc5cf8) 

-- Tick (164539500) -- ISN: (131804) : L from (0x7fffffffed10) -- of Size = (8) -- vaddr (0x7fffffffed10) -- paddr (0xc5d10) 

-- Sqsh -> ISN (131802)

-- ReadReq [4bc40:4bc7f] IF Miss --  Latency: 502 

-- Sqsh -> ISN (131643)

-- ReadReq [b80:bbf] IF Hit -- Blk --state: 7 (E) valid: 1 writable: 1 readable: 1 dirty: 0 | tag: 0x2 set: 0xe way: 0 Latency: 2 

-- ReadReq [d40:d7f] IF Hit -- Blk --state: 7 (E) valid: 1 writable: 1 readable: 1 dirty: 0 | tag: 0x3 set: 0x5 way: 0 Latency: 2 

-- ReadReq [d80:dbf] IF Hit -- Blk --state: 7 (E) valid: 1 writable: 1 readable: 1 dirty: 0 | tag: 0x3 set: 0x6 way: 0 Latency: 2 

-- Tick (164556000) -- ISN: (131818) : L from (0x7fffffffecf0) -- of Size = (8) -- vaddr (0x7fffffffecf0) -- paddr (0xc5cf0) 

-- Tick (164556500) -- ISN: (131821) : L from (0x7fffffffecf8) -- of Size = (8) -- vaddr (0x7fffffffecf8) -- paddr (0xc5cf8) 

-- Tick (164557500) -- ISN: (131828) : S -> (0x89) at (0x7fffffffecf8) -- Size = (8) -- vaddr (0x7fffffffecf8) -- paddr (0xc5cf8) 

-- Tick (164557500) -- ISN: (131838) : L from (0x7fffffffed08) -- of Size = (8) -- vaddr (0x7fffffffed08) -- paddr (0xc5d08) 

-- ReadReq [c5d08:c5d0f] Miss --  Latency: 502 

-- Tick (164558000) -- ISN: (131834) : S -> (0x93) at (0x7fffffffecf0) -- Size = (8) -- vaddr (0x7fffffffecf0) -- paddr (0xc5cf0) 

-- Tick (164558000) -- ISN: (131839) : L from (0x6c58a8) -- of Size = (8) -- vaddr (0x6c58a8) -- paddr (0xc78a8) 

-- ReadReq [c78a8:c78af] Miss --  Latency: 502 

-- Sqsh -> ISN (131830)

-- ReadReq [dc0:dff] IF Hit -- Blk --state: 7 (E) valid: 1 writable: 1 readable: 1 dirty: 0 | tag: 0x3 set: 0x7 way: 0 Latency: 2 

-- ReadReq [d80:dbf] IF Hit -- Blk --state: 7 (E) valid: 1 writable: 1 readable: 1 dirty: 0 | tag: 0x3 set: 0x6 way: 0 Latency: 2 

-- Tick (164563500) -- ISN: (131906) : L from (0x7fffffffecf8) -- of Size = (8) -- vaddr (0x7fffffffecf8) -- paddr (0xc5cf8) 

-- WriteReq [c5cec:c5cef] Miss --  Latency: 502 

-- Tick (164564500) -- ISN: (131916) : L from (0x7fffffffed08) -- of Size = (8) -- vaddr (0x7fffffffed08) -- paddr (0xc5d08) 

-- ReadReq [c5d08:c5d0f] Miss --  Latency: 502 

-- ReadReq [1380:13bf] IF Miss --  Latency: 502 

-- Tick (164565000) -- ISN: (131912) : S -> (0x93) at (0x7fffffffecf8) -- Size = (8) -- vaddr (0x7fffffffecf8) -- paddr (0xc5cf8) 

-- Tick (164565000) -- ISN: (131917) : L from (0x6c58a8) -- of Size = (8) -- vaddr (0x6c58a8) -- paddr (0xc78a8) 

-- ReadReq [c78a8:c78af] Miss --  Latency: 502 

-- Tick (164565500) -- ISN: (131924) : S -> (0xac) at (0x7fffffffecf0) -- Size = (8) -- vaddr (0x7fffffffecf0) -- paddr (0xc5cf0) 

-- Sqsh -> ISN (131914)

-- ReadReq [dc0:dff] IF Hit -- Blk --state: 7 (E) valid: 1 writable: 1 readable: 1 dirty: 0 | tag: 0x3 set: 0x7 way: 0 Latency: 2 

-- ReadReq [d80:dbf] IF Hit -- Blk --state: 7 (E) valid: 1 writable: 1 readable: 1 dirty: 0 | tag: 0x3 set: 0x6 way: 0 Latency: 2 

-- ReadReq [4bc40:4bc7f] IF Miss --  Latency: 502 

-- Tick (164571000) -- ISN: (131968) : L from (0x7fffffffecf8) -- of Size = (8) -- vaddr (0x7fffffffecf8) -- paddr (0xc5cf8) 

-- Tick (164572000) -- ISN: (131972) : L from (0x7fffffffed08) -- of Size = (8) -- vaddr (0x7fffffffed08) -- paddr (0xc5d08) 

-- ReadReq [c5d08:c5d0f] Hit -- Blk --state: 7 (E) valid: 1 writable: 1 readable: 1 dirty: 0 | tag: 0x317 set: 0x4 way: 0 Latency: 2 

-- Tick (164572000) -- ISN: (131973) : L from (0x6c58a8) -- of Size = (8) -- vaddr (0x6c58a8) -- paddr (0xc78a8) 

-- ReadReq [c78a8:c78af] Miss --  Latency: 502 

-- Tick (164573000) -- ISN: (131980) : S -> (0xac) at (0x7fffffffecf8) -- Size = (8) -- vaddr (0x7fffffffecf8) -- paddr (0xc5cf8) 

-- WriteReq [bc424:bc427] Hit -- Blk --state: f (M) valid: 1 writable: 1 readable: 1 dirty: 1 | tag: 0x2f1 set: 0 way: 0 Latency: 2 

-- WriteReq [c5cec:c5cef] Hit -- Blk --state: f (M) valid: 1 writable: 1 readable: 1 dirty: 1 | tag: 0x317 set: 0x3 way: 0 Latency: 2 

-- WriteReq [bc424:bc427] Hit -- Blk --state: f (M) valid: 1 writable: 1 readable: 1 dirty: 1 | tag: 0x2f1 set: 0 way: 0 Latency: 2 

-- WriteReq [bc424:bc427] Hit -- Blk --state: f (M) valid: 1 writable: 1 readable: 1 dirty: 1 | tag: 0x2f1 set: 0 way: 0 Latency: 2 

-- WriteReq [bc424:bc427] Hit -- Blk --state: f (M) valid: 1 writable: 1 readable: 1 dirty: 1 | tag: 0x2f1 set: 0 way: 0 Latency: 2 

-- WriteReq [c5cf8:c5cff] Hit -- Blk --state: f (M) valid: 1 writable: 1 readable: 1 dirty: 1 | tag: 0x317 set: 0x3 way: 0 Latency: 2 

-- WriteReq [c5cf0:c5cf7] Hit -- Blk --state: f (M) valid: 1 writable: 1 readable: 1 dirty: 1 | tag: 0x317 set: 0x3 way: 0 Latency: 2 

-- WriteReq [c5cec:c5cef] Hit -- Blk --state: f (M) valid: 1 writable: 1 readable: 1 dirty: 1 | tag: 0x317 set: 0x3 way: 0 Latency: 2 

-- WriteReq [c5cf8:c5cff] Hit -- Blk --state: f (M) valid: 1 writable: 1 readable: 1 dirty: 1 | tag: 0x317 set: 0x3 way: 0 Latency: 2 

-- WriteReq [c5cf8:c5cff] Hit -- Blk --state: f (M) valid: 1 writable: 1 readable: 1 dirty: 1 | tag: 0x317 set: 0x3 way: 0 Latency: 2 

HERE 2 : enable_memreq_tracing = 0
Exiting @ tick 170044500 because exiting with last active thread context
