gem5 Simulator System.  http://gem5.org
gem5 is copyrighted software; use the --copyright option for details.

gem5 compiled Mar 17 2020 13:52:32
gem5 started Mar 17 2020 20:01:03
gem5 executing on tarund-desk, pid 24439
command line: build/X86/gem5.opt configs/example/se.py --cmd=./tests/my_progs/spectre_test_3 --cpu-type=DerivO3CPU --caches --mem-size=4GB --l1d_size=1kB --l1i_size=1kB --l1d_assoc=1 --l1i_assoc=1 --cacheline_size=64

Global frequency set at 1000000000000 ticks per second
**** REAL SIMULATION ****

Address of a1_len = 0x6b90f0 

Address of i = 0x7fffffffecf8 

Address of j = 0x7fffffffecfc 

Address of x = 0x6bc3a0 

Address of y = 0x6bc428 

Address of array1 = 0x6bc440 

Address of array2 = 0x6bc3c0 

Address of array3 = 0x6bc5e0 
HERE 1 : enable_memreq_tracing = 1
-- Tick (118971000) -- ISN: (81989) : S -> (0x1) at (0x6bc5e4) -- Size = (4) -- vaddr (0x6bc5e4) -- paddr (0xbc5e4) 

-- Tick (118971000) -- ISN: (81991) : S -> (0x0) at (0x7fffffffecf8) -- Size = (4) -- vaddr (0x7fffffffecf8) -- paddr (0xc5cf8) 

-- Tick (118971000) -- ISN: (81995) : L from (0x7fffffffecf8) -- of Size = (4) -- vaddr (0x7fffffffecf8) -- paddr (0xc5cf8) 

-- Tick (118971000) -- ISN: (82002) : L from (0x7fffffffecf8) -- of Size = (4) -- vaddr (0x7fffffffecf8) -- paddr (0xc5cf8) 

-- Tick (118971500) -- ISN: (82006) : L from (0x7fffffffecf8) -- of Size = (4) -- vaddr (0x7fffffffecf8) -- paddr (0xc5cf8) 

-- Sqsh -> ISN (81994)

-- Tick (118976500) -- ISN: (82012) : L from (0x7fffffffecf8) -- of Size = (4) -- vaddr (0x7fffffffecf8) -- paddr (0xc5cf8) 

-- Sqsh -> ISN (82017)

-- Tick (118983000) -- ISN: (82018) : L from (0x7fffffffecf8) -- of Size = (4) -- vaddr (0x7fffffffecf8) -- paddr (0xc5cf8) 

-- Tick (118983000) -- ISN: (82025) : L from (0x7fffffffecf8) -- of Size = (4) -- vaddr (0x7fffffffecf8) -- paddr (0xc5cf8) 

-- Tick (118983500) -- ISN: (82029) : L from (0x7fffffffecf8) -- of Size = (4) -- vaddr (0x7fffffffecf8) -- paddr (0xc5cf8) 

-- Tick (118984500) -- ISN: (82028) : S -> (0x1) at (0x7fffffffecf8) -- Size = (4) -- vaddr (0x7fffffffecf8) -- paddr (0xc5cf8) 

-- Tick (118985000) -- ISN: (82024) : S -> (0x0) at (0x6bc440) -- Size = (4) -- vaddr (0x6bc440) -- paddr (0xbc440) 

-- Sqsh -> ISN (82028)

-- Tick (118989500) -- ISN: (82035) : L from (0x7fffffffecf8) -- of Size = (4) -- vaddr (0x7fffffffecf8) -- paddr (0xc5cf8) 

-- Sqsh -> ISN (82040)

-- Tick (118996000) -- ISN: (82041) : L from (0x7fffffffecf8) -- of Size = (4) -- vaddr (0x7fffffffecf8) -- paddr (0xc5cf8) 

-- Tick (118996000) -- ISN: (82048) : L from (0x7fffffffecf8) -- of Size = (4) -- vaddr (0x7fffffffecf8) -- paddr (0xc5cf8) 

-- Tick (118997500) -- ISN: (82051) : S -> (0x2) at (0x7fffffffecf8) -- Size = (4) -- vaddr (0x7fffffffecf8) -- paddr (0xc5cf8) 

-- Tick (118998000) -- ISN: (82047) : S -> (0x0) at (0x6bc444) -- Size = (4) -- vaddr (0x6bc444) -- paddr (0xbc444) 

-- Tick (118998000) -- ISN: (82052) : L from (0x7fffffffecf8) -- of Size = (4) -- vaddr (0x7fffffffecf8) -- paddr (0xc5cf8) 

-- Sqsh -> ISN (82057)

-- Tick (119004500) -- ISN: (82058) : L from (0x7fffffffecf8) -- of Size = (4) -- vaddr (0x7fffffffecf8) -- paddr (0xc5cf8) 

-- Tick (119004500) -- ISN: (82065) : L from (0x7fffffffecf8) -- of Size = (4) -- vaddr (0x7fffffffecf8) -- paddr (0xc5cf8) 

-- Tick (119006000) -- ISN: (82068) : S -> (0x3) at (0x7fffffffecf8) -- Size = (4) -- vaddr (0x7fffffffecf8) -- paddr (0xc5cf8) 

-- Tick (119006500) -- ISN: (82064) : S -> (0x0) at (0x6bc448) -- Size = (4) -- vaddr (0x6bc448) -- paddr (0xbc448) 

-- Tick (119006500) -- ISN: (82069) : L from (0x7fffffffecf8) -- of Size = (4) -- vaddr (0x7fffffffecf8) -- paddr (0xc5cf8) 

-- Sqsh -> ISN (82074)

-- Tick (119013000) -- ISN: (82075) : L from (0x7fffffffecf8) -- of Size = (4) -- vaddr (0x7fffffffecf8) -- paddr (0xc5cf8) 

-- Tick (119013000) -- ISN: (82082) : L from (0x7fffffffecf8) -- of Size = (4) -- vaddr (0x7fffffffecf8) -- paddr (0xc5cf8) 

-- Tick (119014500) -- ISN: (82085) : S -> (0x4) at (0x7fffffffecf8) -- Size = (4) -- vaddr (0x7fffffffecf8) -- paddr (0xc5cf8) 

-- Tick (119015000) -- ISN: (82081) : S -> (0x0) at (0x6bc44c) -- Size = (4) -- vaddr (0x6bc44c) -- paddr (0xbc44c) 

-- Tick (119015000) -- ISN: (82086) : L from (0x7fffffffecf8) -- of Size = (4) -- vaddr (0x7fffffffecf8) -- paddr (0xc5cf8) 

-- Sqsh -> ISN (82091)

-- Tick (119021500) -- ISN: (82092) : L from (0x7fffffffecf8) -- of Size = (4) -- vaddr (0x7fffffffecf8) -- paddr (0xc5cf8) 

-- Tick (119021500) -- ISN: (82099) : L from (0x7fffffffecf8) -- of Size = (4) -- vaddr (0x7fffffffecf8) -- paddr (0xc5cf8) 

-- Tick (119023000) -- ISN: (82102) : S -> (0x5) at (0x7fffffffecf8) -- Size = (4) -- vaddr (0x7fffffffecf8) -- paddr (0xc5cf8) 

-- Tick (119023000) -- ISN: (82109) : L from (0x7fffffffecf8) -- of Size = (4) -- vaddr (0x7fffffffecf8) -- paddr (0xc5cf8) 

-- Tick (119023000) -- ISN: (82116) : L from (0x7fffffffecf8) -- of Size = (4) -- vaddr (0x7fffffffecf8) -- paddr (0xc5cf8) 

-- Tick (119023500) -- ISN: (82098) : S -> (0x0) at (0x6bc450) -- Size = (4) -- vaddr (0x6bc450) -- paddr (0xbc450) 

-- Tick (119023500) -- ISN: (82103) : L from (0x7fffffffecf8) -- of Size = (4) -- vaddr (0x7fffffffecf8) -- paddr (0xc5cf8) 

-- Tick (119024500) -- ISN: (82119) : S -> (0x6) at (0x7fffffffecf8) -- Size = (4) -- vaddr (0x7fffffffecf8) -- paddr (0xc5cf8) 

-- Tick (119024500) -- ISN: (82126) : L from (0x7fffffffecf8) -- of Size = (4) -- vaddr (0x7fffffffecf8) -- paddr (0xc5cf8) 

-- Tick (119024500) -- ISN: (82133) : L from (0x7fffffffecf8) -- of Size = (4) -- vaddr (0x7fffffffecf8) -- paddr (0xc5cf8) 

-- Tick (119025000) -- ISN: (82115) : S -> (0x0) at (0x6bc454) -- Size = (4) -- vaddr (0x6bc454) -- paddr (0xbc454) 

-- Tick (119025000) -- ISN: (82120) : L from (0x7fffffffecf8) -- of Size = (4) -- vaddr (0x7fffffffecf8) -- paddr (0xc5cf8) 

-- Tick (119026000) -- ISN: (82136) : S -> (0x7) at (0x7fffffffecf8) -- Size = (4) -- vaddr (0x7fffffffecf8) -- paddr (0xc5cf8) 

-- Tick (119026000) -- ISN: (82143) : L from (0x7fffffffecf8) -- of Size = (4) -- vaddr (0x7fffffffecf8) -- paddr (0xc5cf8) 

-- Tick (119026000) -- ISN: (82150) : L from (0x7fffffffecf8) -- of Size = (4) -- vaddr (0x7fffffffecf8) -- paddr (0xc5cf8) 

-- Tick (119026500) -- ISN: (82132) : S -> (0x0) at (0x6bc458) -- Size = (4) -- vaddr (0x6bc458) -- paddr (0xbc458) 

-- Tick (119026500) -- ISN: (82137) : L from (0x7fffffffecf8) -- of Size = (4) -- vaddr (0x7fffffffecf8) -- paddr (0xc5cf8) 

-- Tick (119027500) -- ISN: (82153) : S -> (0x8) at (0x7fffffffecf8) -- Size = (4) -- vaddr (0x7fffffffecf8) -- paddr (0xc5cf8) 

-- Tick (119027500) -- ISN: (82160) : L from (0x7fffffffecf8) -- of Size = (4) -- vaddr (0x7fffffffecf8) -- paddr (0xc5cf8) 

-- Tick (119027500) -- ISN: (82167) : L from (0x7fffffffecf8) -- of Size = (4) -- vaddr (0x7fffffffecf8) -- paddr (0xc5cf8) 

-- Tick (119028000) -- ISN: (82149) : S -> (0x0) at (0x6bc45c) -- Size = (4) -- vaddr (0x6bc45c) -- paddr (0xbc45c) 

-- Tick (119028000) -- ISN: (82154) : L from (0x7fffffffecf8) -- of Size = (4) -- vaddr (0x7fffffffecf8) -- paddr (0xc5cf8) 

-- Tick (119029000) -- ISN: (82170) : S -> (0x9) at (0x7fffffffecf8) -- Size = (4) -- vaddr (0x7fffffffecf8) -- paddr (0xc5cf8) 

-- Tick (119029000) -- ISN: (82177) : L from (0x7fffffffecf8) -- of Size = (4) -- vaddr (0x7fffffffecf8) -- paddr (0xc5cf8) 

-- Tick (119029000) -- ISN: (82184) : L from (0x7fffffffecf8) -- of Size = (4) -- vaddr (0x7fffffffecf8) -- paddr (0xc5cf8) 

-- Tick (119029500) -- ISN: (82166) : S -> (0x0) at (0x6bc460) -- Size = (4) -- vaddr (0x6bc460) -- paddr (0xbc460) 

-- Tick (119029500) -- ISN: (82171) : L from (0x7fffffffecf8) -- of Size = (4) -- vaddr (0x7fffffffecf8) -- paddr (0xc5cf8) 

-- Tick (119030500) -- ISN: (82187) : S -> (0xa) at (0x7fffffffecf8) -- Size = (4) -- vaddr (0x7fffffffecf8) -- paddr (0xc5cf8) 

-- Tick (119030500) -- ISN: (82194) : L from (0x7fffffffecf8) -- of Size = (4) -- vaddr (0x7fffffffecf8) -- paddr (0xc5cf8) 

-- Tick (119030500) -- ISN: (82201) : L from (0x7fffffffecf8) -- of Size = (4) -- vaddr (0x7fffffffecf8) -- paddr (0xc5cf8) 

-- Tick (119031000) -- ISN: (82183) : S -> (0x0) at (0x6bc464) -- Size = (4) -- vaddr (0x6bc464) -- paddr (0xbc464) 

-- Tick (119031000) -- ISN: (82188) : L from (0x7fffffffecf8) -- of Size = (4) -- vaddr (0x7fffffffecf8) -- paddr (0xc5cf8) 

-- Tick (119032000) -- ISN: (82204) : S -> (0xb) at (0x7fffffffecf8) -- Size = (4) -- vaddr (0x7fffffffecf8) -- paddr (0xc5cf8) 

-- Tick (119032000) -- ISN: (82211) : L from (0x7fffffffecf8) -- of Size = (4) -- vaddr (0x7fffffffecf8) -- paddr (0xc5cf8) 

-- Tick (119032000) -- ISN: (82218) : L from (0x7fffffffecf8) -- of Size = (4) -- vaddr (0x7fffffffecf8) -- paddr (0xc5cf8) 

-- Tick (119032500) -- ISN: (82200) : S -> (0x0) at (0x6bc468) -- Size = (4) -- vaddr (0x6bc468) -- paddr (0xbc468) 

-- Tick (119032500) -- ISN: (82205) : L from (0x7fffffffecf8) -- of Size = (4) -- vaddr (0x7fffffffecf8) -- paddr (0xc5cf8) 

-- Tick (119033500) -- ISN: (82221) : S -> (0xc) at (0x7fffffffecf8) -- Size = (4) -- vaddr (0x7fffffffecf8) -- paddr (0xc5cf8) 

-- Tick (119033500) -- ISN: (82228) : L from (0x7fffffffecf8) -- of Size = (4) -- vaddr (0x7fffffffecf8) -- paddr (0xc5cf8) 

-- Tick (119033500) -- ISN: (82235) : L from (0x7fffffffecf8) -- of Size = (4) -- vaddr (0x7fffffffecf8) -- paddr (0xc5cf8) 

-- Tick (119034000) -- ISN: (82217) : S -> (0x0) at (0x6bc46c) -- Size = (4) -- vaddr (0x6bc46c) -- paddr (0xbc46c) 

-- Tick (119034000) -- ISN: (82222) : L from (0x7fffffffecf8) -- of Size = (4) -- vaddr (0x7fffffffecf8) -- paddr (0xc5cf8) 

-- Tick (119035000) -- ISN: (82238) : S -> (0xd) at (0x7fffffffecf8) -- Size = (4) -- vaddr (0x7fffffffecf8) -- paddr (0xc5cf8) 

-- Tick (119035000) -- ISN: (82245) : L from (0x7fffffffecf8) -- of Size = (4) -- vaddr (0x7fffffffecf8) -- paddr (0xc5cf8) 

-- Tick (119035000) -- ISN: (82252) : L from (0x7fffffffecf8) -- of Size = (4) -- vaddr (0x7fffffffecf8) -- paddr (0xc5cf8) 

-- Tick (119035500) -- ISN: (82234) : S -> (0x0) at (0x6bc470) -- Size = (4) -- vaddr (0x6bc470) -- paddr (0xbc470) 

-- Tick (119035500) -- ISN: (82239) : L from (0x7fffffffecf8) -- of Size = (4) -- vaddr (0x7fffffffecf8) -- paddr (0xc5cf8) 

-- Tick (119036500) -- ISN: (82255) : S -> (0xe) at (0x7fffffffecf8) -- Size = (4) -- vaddr (0x7fffffffecf8) -- paddr (0xc5cf8) 

-- Tick (119036500) -- ISN: (82262) : L from (0x7fffffffecf8) -- of Size = (4) -- vaddr (0x7fffffffecf8) -- paddr (0xc5cf8) 

-- Tick (119036500) -- ISN: (82269) : L from (0x7fffffffecf8) -- of Size = (4) -- vaddr (0x7fffffffecf8) -- paddr (0xc5cf8) 

-- Tick (119037000) -- ISN: (82251) : S -> (0x0) at (0x6bc474) -- Size = (4) -- vaddr (0x6bc474) -- paddr (0xbc474) 

-- Tick (119037000) -- ISN: (82256) : L from (0x7fffffffecf8) -- of Size = (4) -- vaddr (0x7fffffffecf8) -- paddr (0xc5cf8) 

-- Tick (119038000) -- ISN: (82272) : S -> (0xf) at (0x7fffffffecf8) -- Size = (4) -- vaddr (0x7fffffffecf8) -- paddr (0xc5cf8) 

-- Tick (119038000) -- ISN: (82279) : L from (0x7fffffffecf8) -- of Size = (4) -- vaddr (0x7fffffffecf8) -- paddr (0xc5cf8) 

-- Tick (119038000) -- ISN: (82286) : L from (0x7fffffffecf8) -- of Size = (4) -- vaddr (0x7fffffffecf8) -- paddr (0xc5cf8) 

-- Tick (119038500) -- ISN: (82268) : S -> (0x0) at (0x6bc478) -- Size = (4) -- vaddr (0x6bc478) -- paddr (0xbc478) 

-- Tick (119038500) -- ISN: (82273) : L from (0x7fffffffecf8) -- of Size = (4) -- vaddr (0x7fffffffecf8) -- paddr (0xc5cf8) 

-- Tick (119040000) -- ISN: (82285) : S -> (0x0) at (0x6bc47c) -- Size = (4) -- vaddr (0x6bc47c) -- paddr (0xbc47c) 

-- Tick (119041000) -- ISN: (82289) : S -> (0x10) at (0x7fffffffecf8) -- Size = (4) -- vaddr (0x7fffffffecf8) -- paddr (0xc5cf8) 

-- Tick (119041500) -- ISN: (82290) : L from (0x7fffffffecf8) -- of Size = (4) -- vaddr (0x7fffffffecf8) -- paddr (0xc5cf8) 

-- Tick (119042000) -- ISN: (82296) : L from (0x7fffffffecf8) -- of Size = (4) -- vaddr (0x7fffffffecf8) -- paddr (0xc5cf8) 

-- Tick (119042000) -- ISN: (82303) : L from (0x7fffffffecf8) -- of Size = (4) -- vaddr (0x7fffffffecf8) -- paddr (0xc5cf8) 

-- Tick (119044000) -- ISN: (82302) : S -> (0x0) at (0x6bc480) -- Size = (4) -- vaddr (0x6bc480) -- paddr (0xbc480) 

-- Tick (119096000) -- ISN: (82306) : S -> (0x11) at (0x7fffffffecf8) -- Size = (4) -- vaddr (0x7fffffffecf8) -- paddr (0xc5cf8) 

-- Tick (119096500) -- ISN: (82307) : L from (0x7fffffffecf8) -- of Size = (4) -- vaddr (0x7fffffffecf8) -- paddr (0xc5cf8) 

-- Tick (119097000) -- ISN: (82313) : L from (0x7fffffffecf8) -- of Size = (4) -- vaddr (0x7fffffffecf8) -- paddr (0xc5cf8) 

-- Tick (119097500) -- ISN: (82320) : L from (0x7fffffffecf8) -- of Size = (4) -- vaddr (0x7fffffffecf8) -- paddr (0xc5cf8) 

-- Tick (119098500) -- ISN: (82330) : L from (0x7fffffffecf8) -- of Size = (4) -- vaddr (0x7fffffffecf8) -- paddr (0xc5cf8) 

-- Tick (119099000) -- ISN: (82319) : S -> (0x0) at (0x6bc484) -- Size = (4) -- vaddr (0x6bc484) -- paddr (0xbc484) 

-- Tick (119099000) -- ISN: (82323) : S -> (0x12) at (0x7fffffffecf8) -- Size = (4) -- vaddr (0x7fffffffecf8) -- paddr (0xc5cf8) 

-- Tick (119099000) -- ISN: (82337) : L from (0x7fffffffecf8) -- of Size = (4) -- vaddr (0x7fffffffecf8) -- paddr (0xc5cf8) 

-- Tick (119099500) -- ISN: (82324) : L from (0x7fffffffecf8) -- of Size = (4) -- vaddr (0x7fffffffecf8) -- paddr (0xc5cf8) 

-- Sqsh -> ISN (82329)

-- Tick (119103500) -- ISN: (82398) : L from (0x7fffffffecf8) -- of Size = (4) -- vaddr (0x7fffffffecf8) -- paddr (0xc5cf8) 

-- Tick (119103500) -- ISN: (82405) : L from (0x7fffffffecf8) -- of Size = (4) -- vaddr (0x7fffffffecf8) -- paddr (0xc5cf8) 

-- Tick (119105500) -- ISN: (82404) : S -> (0x0) at (0x6bc488) -- Size = (4) -- vaddr (0x6bc488) -- paddr (0xbc488) 

-- Tick (119105500) -- ISN: (82408) : S -> (0x13) at (0x7fffffffecf8) -- Size = (4) -- vaddr (0x7fffffffecf8) -- paddr (0xc5cf8) 

-- Tick (119106000) -- ISN: (82409) : L from (0x7fffffffecf8) -- of Size = (4) -- vaddr (0x7fffffffecf8) -- paddr (0xc5cf8) 

-- Tick (119106000) -- ISN: (82415) : L from (0x7fffffffecf8) -- of Size = (4) -- vaddr (0x7fffffffecf8) -- paddr (0xc5cf8) 

-- Tick (119106000) -- ISN: (82422) : L from (0x7fffffffecf8) -- of Size = (4) -- vaddr (0x7fffffffecf8) -- paddr (0xc5cf8) 

-- Tick (119107500) -- ISN: (82425) : S -> (0x14) at (0x7fffffffecf8) -- Size = (4) -- vaddr (0x7fffffffecf8) -- paddr (0xc5cf8) 

-- Tick (119107500) -- ISN: (82439) : L from (0x7fffffffecf8) -- of Size = (4) -- vaddr (0x7fffffffecf8) -- paddr (0xc5cf8) 

-- Tick (119108000) -- ISN: (82421) : S -> (0x0) at (0x6bc48c) -- Size = (4) -- vaddr (0x6bc48c) -- paddr (0xbc48c) 

-- Tick (119108000) -- ISN: (82426) : L from (0x7fffffffecf8) -- of Size = (4) -- vaddr (0x7fffffffecf8) -- paddr (0xc5cf8) 

-- Tick (119108000) -- ISN: (82432) : L from (0x7fffffffecf8) -- of Size = (4) -- vaddr (0x7fffffffecf8) -- paddr (0xc5cf8) 

-- Tick (119108500) -- ISN: (82456) : L from (0x7fffffffecf8) -- of Size = (4) -- vaddr (0x7fffffffecf8) -- paddr (0xc5cf8) 

-- Tick (119109000) -- ISN: (82442) : S -> (0x15) at (0x7fffffffecf8) -- Size = (4) -- vaddr (0x7fffffffecf8) -- paddr (0xc5cf8) 

-- Tick (119109500) -- ISN: (82443) : L from (0x7fffffffecf8) -- of Size = (4) -- vaddr (0x7fffffffecf8) -- paddr (0xc5cf8) 

-- Tick (119109500) -- ISN: (82449) : L from (0x7fffffffecf8) -- of Size = (4) -- vaddr (0x7fffffffecf8) -- paddr (0xc5cf8) 

-- Tick (119109500) -- ISN: (82473) : L from (0x7fffffffecf8) -- of Size = (4) -- vaddr (0x7fffffffecf8) -- paddr (0xc5cf8) 

-- Sqsh -> ISN (82455)

-- Tick (119110000) -- ISN: (82438) : S -> (0x0) at (0x6bc490) -- Size = (4) -- vaddr (0x6bc490) -- paddr (0xbc490) 

-- Tick (119111500) -- ISN: (82455) : S -> (0x0) at (0x6bc494) -- Size = (4) -- vaddr (0x6bc494) -- paddr (0xbc494) 

-- Tick (119114000) -- ISN: (82508) : L from (0x7fffffffecf8) -- of Size = (4) -- vaddr (0x7fffffffecf8) -- paddr (0xc5cf8) 

-- Tick (119115500) -- ISN: (82511) : S -> (0x16) at (0x7fffffffecf8) -- Size = (4) -- vaddr (0x7fffffffecf8) -- paddr (0xc5cf8) 

-- Tick (119116000) -- ISN: (82512) : L from (0x7fffffffecf8) -- of Size = (4) -- vaddr (0x7fffffffecf8) -- paddr (0xc5cf8) 

-- Tick (119116000) -- ISN: (82518) : L from (0x7fffffffecf8) -- of Size = (4) -- vaddr (0x7fffffffecf8) -- paddr (0xc5cf8) 

-- Tick (119116000) -- ISN: (82525) : L from (0x7fffffffecf8) -- of Size = (4) -- vaddr (0x7fffffffecf8) -- paddr (0xc5cf8) 

-- Tick (119117500) -- ISN: (82528) : S -> (0x17) at (0x7fffffffecf8) -- Size = (4) -- vaddr (0x7fffffffecf8) -- paddr (0xc5cf8) 

-- Tick (119118000) -- ISN: (82524) : S -> (0x0) at (0x6bc498) -- Size = (4) -- vaddr (0x6bc498) -- paddr (0xbc498) 

-- Tick (119118000) -- ISN: (82529) : L from (0x7fffffffecf8) -- of Size = (4) -- vaddr (0x7fffffffecf8) -- paddr (0xc5cf8) 

-- Tick (119118000) -- ISN: (82535) : L from (0x7fffffffecf8) -- of Size = (4) -- vaddr (0x7fffffffecf8) -- paddr (0xc5cf8) 

-- Tick (119118000) -- ISN: (82542) : L from (0x7fffffffecf8) -- of Size = (4) -- vaddr (0x7fffffffecf8) -- paddr (0xc5cf8) 

-- Tick (119119500) -- ISN: (82545) : S -> (0x18) at (0x7fffffffecf8) -- Size = (4) -- vaddr (0x7fffffffecf8) -- paddr (0xc5cf8) 

-- Tick (119120000) -- ISN: (82541) : S -> (0x0) at (0x6bc49c) -- Size = (4) -- vaddr (0x6bc49c) -- paddr (0xbc49c) 

-- Tick (119120000) -- ISN: (82546) : L from (0x7fffffffecf8) -- of Size = (4) -- vaddr (0x7fffffffecf8) -- paddr (0xc5cf8) 

-- Tick (119120000) -- ISN: (82552) : L from (0x7fffffffecf8) -- of Size = (4) -- vaddr (0x7fffffffecf8) -- paddr (0xc5cf8) 

-- Tick (119120000) -- ISN: (82559) : L from (0x7fffffffecf8) -- of Size = (4) -- vaddr (0x7fffffffecf8) -- paddr (0xc5cf8) 

-- Tick (119121500) -- ISN: (82562) : S -> (0x19) at (0x7fffffffecf8) -- Size = (4) -- vaddr (0x7fffffffecf8) -- paddr (0xc5cf8) 

-- Tick (119122000) -- ISN: (82558) : S -> (0x0) at (0x6bc4a0) -- Size = (4) -- vaddr (0x6bc4a0) -- paddr (0xbc4a0) 

-- Tick (119122000) -- ISN: (82563) : L from (0x7fffffffecf8) -- of Size = (4) -- vaddr (0x7fffffffecf8) -- paddr (0xc5cf8) 

-- Tick (119122000) -- ISN: (82569) : L from (0x7fffffffecf8) -- of Size = (4) -- vaddr (0x7fffffffecf8) -- paddr (0xc5cf8) 

-- Tick (119122000) -- ISN: (82576) : L from (0x7fffffffecf8) -- of Size = (4) -- vaddr (0x7fffffffecf8) -- paddr (0xc5cf8) 

-- Tick (119123500) -- ISN: (82579) : S -> (0x1a) at (0x7fffffffecf8) -- Size = (4) -- vaddr (0x7fffffffecf8) -- paddr (0xc5cf8) 

-- Tick (119124000) -- ISN: (82575) : S -> (0x0) at (0x6bc4a4) -- Size = (4) -- vaddr (0x6bc4a4) -- paddr (0xbc4a4) 

-- Tick (119124000) -- ISN: (82580) : L from (0x7fffffffecf8) -- of Size = (4) -- vaddr (0x7fffffffecf8) -- paddr (0xc5cf8) 

-- Tick (119124000) -- ISN: (82586) : L from (0x7fffffffecf8) -- of Size = (4) -- vaddr (0x7fffffffecf8) -- paddr (0xc5cf8) 

-- Tick (119124000) -- ISN: (82593) : L from (0x7fffffffecf8) -- of Size = (4) -- vaddr (0x7fffffffecf8) -- paddr (0xc5cf8) 

-- Tick (119125500) -- ISN: (82596) : S -> (0x1b) at (0x7fffffffecf8) -- Size = (4) -- vaddr (0x7fffffffecf8) -- paddr (0xc5cf8) 

-- Tick (119126000) -- ISN: (82592) : S -> (0x0) at (0x6bc4a8) -- Size = (4) -- vaddr (0x6bc4a8) -- paddr (0xbc4a8) 

-- Tick (119126000) -- ISN: (82597) : L from (0x7fffffffecf8) -- of Size = (4) -- vaddr (0x7fffffffecf8) -- paddr (0xc5cf8) 

-- Tick (119126000) -- ISN: (82603) : L from (0x7fffffffecf8) -- of Size = (4) -- vaddr (0x7fffffffecf8) -- paddr (0xc5cf8) 

-- Tick (119126000) -- ISN: (82610) : L from (0x7fffffffecf8) -- of Size = (4) -- vaddr (0x7fffffffecf8) -- paddr (0xc5cf8) 

-- Tick (119127500) -- ISN: (82613) : S -> (0x1c) at (0x7fffffffecf8) -- Size = (4) -- vaddr (0x7fffffffecf8) -- paddr (0xc5cf8) 

-- Tick (119128000) -- ISN: (82609) : S -> (0x0) at (0x6bc4ac) -- Size = (4) -- vaddr (0x6bc4ac) -- paddr (0xbc4ac) 

-- Tick (119128000) -- ISN: (82614) : L from (0x7fffffffecf8) -- of Size = (4) -- vaddr (0x7fffffffecf8) -- paddr (0xc5cf8) 

-- Tick (119128000) -- ISN: (82620) : L from (0x7fffffffecf8) -- of Size = (4) -- vaddr (0x7fffffffecf8) -- paddr (0xc5cf8) 

-- Tick (119128000) -- ISN: (82627) : L from (0x7fffffffecf8) -- of Size = (4) -- vaddr (0x7fffffffecf8) -- paddr (0xc5cf8) 

-- Tick (119129500) -- ISN: (82630) : S -> (0x1d) at (0x7fffffffecf8) -- Size = (4) -- vaddr (0x7fffffffecf8) -- paddr (0xc5cf8) 

-- Tick (119130000) -- ISN: (82626) : S -> (0x0) at (0x6bc4b0) -- Size = (4) -- vaddr (0x6bc4b0) -- paddr (0xbc4b0) 

-- Tick (119130000) -- ISN: (82631) : L from (0x7fffffffecf8) -- of Size = (4) -- vaddr (0x7fffffffecf8) -- paddr (0xc5cf8) 

-- Tick (119130000) -- ISN: (82637) : L from (0x7fffffffecf8) -- of Size = (4) -- vaddr (0x7fffffffecf8) -- paddr (0xc5cf8) 

-- Tick (119130000) -- ISN: (82644) : L from (0x7fffffffecf8) -- of Size = (4) -- vaddr (0x7fffffffecf8) -- paddr (0xc5cf8) 

-- Tick (119131500) -- ISN: (82647) : S -> (0x1e) at (0x7fffffffecf8) -- Size = (4) -- vaddr (0x7fffffffecf8) -- paddr (0xc5cf8) 

-- Tick (119132000) -- ISN: (82643) : S -> (0x0) at (0x6bc4b4) -- Size = (4) -- vaddr (0x6bc4b4) -- paddr (0xbc4b4) 

-- Tick (119132000) -- ISN: (82648) : L from (0x7fffffffecf8) -- of Size = (4) -- vaddr (0x7fffffffecf8) -- paddr (0xc5cf8) 

-- Tick (119132000) -- ISN: (82654) : L from (0x7fffffffecf8) -- of Size = (4) -- vaddr (0x7fffffffecf8) -- paddr (0xc5cf8) 

-- Tick (119132000) -- ISN: (82661) : L from (0x7fffffffecf8) -- of Size = (4) -- vaddr (0x7fffffffecf8) -- paddr (0xc5cf8) 

-- Tick (119133500) -- ISN: (82664) : S -> (0x1f) at (0x7fffffffecf8) -- Size = (4) -- vaddr (0x7fffffffecf8) -- paddr (0xc5cf8) 

-- Tick (119134000) -- ISN: (82660) : S -> (0x0) at (0x6bc4b8) -- Size = (4) -- vaddr (0x6bc4b8) -- paddr (0xbc4b8) 

-- Tick (119134000) -- ISN: (82665) : L from (0x7fffffffecf8) -- of Size = (4) -- vaddr (0x7fffffffecf8) -- paddr (0xc5cf8) 

-- Tick (119134000) -- ISN: (82671) : L from (0x7fffffffecf8) -- of Size = (4) -- vaddr (0x7fffffffecf8) -- paddr (0xc5cf8) 

-- Tick (119134000) -- ISN: (82678) : L from (0x7fffffffecf8) -- of Size = (4) -- vaddr (0x7fffffffecf8) -- paddr (0xc5cf8) 

-- Tick (119135500) -- ISN: (82681) : S -> (0x20) at (0x7fffffffecf8) -- Size = (4) -- vaddr (0x7fffffffecf8) -- paddr (0xc5cf8) 

-- Tick (119136000) -- ISN: (82677) : S -> (0x0) at (0x6bc4bc) -- Size = (4) -- vaddr (0x6bc4bc) -- paddr (0xbc4bc) 

-- Tick (119136000) -- ISN: (82682) : L from (0x7fffffffecf8) -- of Size = (4) -- vaddr (0x7fffffffecf8) -- paddr (0xc5cf8) 

-- Tick (119136000) -- ISN: (82688) : L from (0x7fffffffecf8) -- of Size = (4) -- vaddr (0x7fffffffecf8) -- paddr (0xc5cf8) 

-- Tick (119136000) -- ISN: (82695) : L from (0x7fffffffecf8) -- of Size = (4) -- vaddr (0x7fffffffecf8) -- paddr (0xc5cf8) 

-- Tick (119138000) -- ISN: (82694) : S -> (0x0) at (0x6bc4c0) -- Size = (4) -- vaddr (0x6bc4c0) -- paddr (0xbc4c0) 

-- Tick (119178000) -- ISN: (82698) : S -> (0x21) at (0x7fffffffecf8) -- Size = (4) -- vaddr (0x7fffffffecf8) -- paddr (0xc5cf8) 

-- Tick (119178500) -- ISN: (82699) : L from (0x7fffffffecf8) -- of Size = (4) -- vaddr (0x7fffffffecf8) -- paddr (0xc5cf8) 

-- Tick (119179000) -- ISN: (82705) : L from (0x7fffffffecf8) -- of Size = (4) -- vaddr (0x7fffffffecf8) -- paddr (0xc5cf8) 

-- Tick (119179000) -- ISN: (82712) : L from (0x7fffffffecf8) -- of Size = (4) -- vaddr (0x7fffffffecf8) -- paddr (0xc5cf8) 

-- Tick (119180500) -- ISN: (82715) : S -> (0x22) at (0x7fffffffecf8) -- Size = (4) -- vaddr (0x7fffffffecf8) -- paddr (0xc5cf8) 

-- Tick (119181000) -- ISN: (82711) : S -> (0x0) at (0x6bc4c4) -- Size = (4) -- vaddr (0x6bc4c4) -- paddr (0xbc4c4) 

-- Tick (119181000) -- ISN: (82716) : L from (0x7fffffffecf8) -- of Size = (4) -- vaddr (0x7fffffffecf8) -- paddr (0xc5cf8) 

-- Tick (119181000) -- ISN: (82722) : L from (0x7fffffffecf8) -- of Size = (4) -- vaddr (0x7fffffffecf8) -- paddr (0xc5cf8) 

-- Tick (119181500) -- ISN: (82729) : L from (0x7fffffffecf8) -- of Size = (4) -- vaddr (0x7fffffffecf8) -- paddr (0xc5cf8) 

-- Tick (119183000) -- ISN: (82728) : S -> (0x0) at (0x6bc4c8) -- Size = (4) -- vaddr (0x6bc4c8) -- paddr (0xbc4c8) 

-- Tick (119183000) -- ISN: (82732) : S -> (0x23) at (0x7fffffffecf8) -- Size = (4) -- vaddr (0x7fffffffecf8) -- paddr (0xc5cf8) 

-- Tick (119183500) -- ISN: (82733) : L from (0x7fffffffecf8) -- of Size = (4) -- vaddr (0x7fffffffecf8) -- paddr (0xc5cf8) 

-- Tick (119183500) -- ISN: (82739) : L from (0x7fffffffecf8) -- of Size = (4) -- vaddr (0x7fffffffecf8) -- paddr (0xc5cf8) 

-- Tick (119183500) -- ISN: (82746) : L from (0x7fffffffecf8) -- of Size = (4) -- vaddr (0x7fffffffecf8) -- paddr (0xc5cf8) 

-- Tick (119185000) -- ISN: (82749) : S -> (0x24) at (0x7fffffffecf8) -- Size = (4) -- vaddr (0x7fffffffecf8) -- paddr (0xc5cf8) 

-- Tick (119185500) -- ISN: (82745) : S -> (0x0) at (0x6bc4cc) -- Size = (4) -- vaddr (0x6bc4cc) -- paddr (0xbc4cc) 

-- Tick (119185500) -- ISN: (82750) : L from (0x7fffffffecf8) -- of Size = (4) -- vaddr (0x7fffffffecf8) -- paddr (0xc5cf8) 

-- Tick (119185500) -- ISN: (82756) : L from (0x7fffffffecf8) -- of Size = (4) -- vaddr (0x7fffffffecf8) -- paddr (0xc5cf8) 

-- Tick (119185500) -- ISN: (82763) : L from (0x7fffffffecf8) -- of Size = (4) -- vaddr (0x7fffffffecf8) -- paddr (0xc5cf8) 

-- Tick (119187000) -- ISN: (82766) : S -> (0x25) at (0x7fffffffecf8) -- Size = (4) -- vaddr (0x7fffffffecf8) -- paddr (0xc5cf8) 

-- Tick (119187500) -- ISN: (82762) : S -> (0x0) at (0x6bc4d0) -- Size = (4) -- vaddr (0x6bc4d0) -- paddr (0xbc4d0) 

-- Tick (119187500) -- ISN: (82767) : L from (0x7fffffffecf8) -- of Size = (4) -- vaddr (0x7fffffffecf8) -- paddr (0xc5cf8) 

-- Tick (119187500) -- ISN: (82773) : L from (0x7fffffffecf8) -- of Size = (4) -- vaddr (0x7fffffffecf8) -- paddr (0xc5cf8) 

-- Tick (119187500) -- ISN: (82780) : L from (0x7fffffffecf8) -- of Size = (4) -- vaddr (0x7fffffffecf8) -- paddr (0xc5cf8) 

-- Tick (119189000) -- ISN: (82783) : S -> (0x26) at (0x7fffffffecf8) -- Size = (4) -- vaddr (0x7fffffffecf8) -- paddr (0xc5cf8) 

-- Tick (119189500) -- ISN: (82779) : S -> (0x0) at (0x6bc4d4) -- Size = (4) -- vaddr (0x6bc4d4) -- paddr (0xbc4d4) 

-- Tick (119189500) -- ISN: (82784) : L from (0x7fffffffecf8) -- of Size = (4) -- vaddr (0x7fffffffecf8) -- paddr (0xc5cf8) 

-- Tick (119189500) -- ISN: (82790) : L from (0x7fffffffecf8) -- of Size = (4) -- vaddr (0x7fffffffecf8) -- paddr (0xc5cf8) 

-- Tick (119189500) -- ISN: (82797) : L from (0x7fffffffecf8) -- of Size = (4) -- vaddr (0x7fffffffecf8) -- paddr (0xc5cf8) 

-- Tick (119191000) -- ISN: (82800) : S -> (0x27) at (0x7fffffffecf8) -- Size = (4) -- vaddr (0x7fffffffecf8) -- paddr (0xc5cf8) 

-- Tick (119191500) -- ISN: (82796) : S -> (0x0) at (0x6bc4d8) -- Size = (4) -- vaddr (0x6bc4d8) -- paddr (0xbc4d8) 

-- Tick (119191500) -- ISN: (82801) : L from (0x7fffffffecf8) -- of Size = (4) -- vaddr (0x7fffffffecf8) -- paddr (0xc5cf8) 

-- Tick (119191500) -- ISN: (82807) : L from (0x7fffffffecf8) -- of Size = (4) -- vaddr (0x7fffffffecf8) -- paddr (0xc5cf8) 

-- Tick (119191500) -- ISN: (82814) : L from (0x7fffffffecf8) -- of Size = (4) -- vaddr (0x7fffffffecf8) -- paddr (0xc5cf8) 

-- Tick (119193000) -- ISN: (82817) : S -> (0x28) at (0x7fffffffecf8) -- Size = (4) -- vaddr (0x7fffffffecf8) -- paddr (0xc5cf8) 

-- Tick (119193500) -- ISN: (82813) : S -> (0x0) at (0x6bc4dc) -- Size = (4) -- vaddr (0x6bc4dc) -- paddr (0xbc4dc) 

-- Tick (119193500) -- ISN: (82818) : L from (0x7fffffffecf8) -- of Size = (4) -- vaddr (0x7fffffffecf8) -- paddr (0xc5cf8) 

-- Tick (119193500) -- ISN: (82824) : L from (0x7fffffffecf8) -- of Size = (4) -- vaddr (0x7fffffffecf8) -- paddr (0xc5cf8) 

-- Tick (119193500) -- ISN: (82831) : L from (0x7fffffffecf8) -- of Size = (4) -- vaddr (0x7fffffffecf8) -- paddr (0xc5cf8) 

-- Tick (119195000) -- ISN: (82834) : S -> (0x29) at (0x7fffffffecf8) -- Size = (4) -- vaddr (0x7fffffffecf8) -- paddr (0xc5cf8) 

-- Tick (119195500) -- ISN: (82830) : S -> (0x0) at (0x6bc4e0) -- Size = (4) -- vaddr (0x6bc4e0) -- paddr (0xbc4e0) 

-- Tick (119195500) -- ISN: (82835) : L from (0x7fffffffecf8) -- of Size = (4) -- vaddr (0x7fffffffecf8) -- paddr (0xc5cf8) 

-- Tick (119195500) -- ISN: (82841) : L from (0x7fffffffecf8) -- of Size = (4) -- vaddr (0x7fffffffecf8) -- paddr (0xc5cf8) 

-- Tick (119195500) -- ISN: (82848) : L from (0x7fffffffecf8) -- of Size = (4) -- vaddr (0x7fffffffecf8) -- paddr (0xc5cf8) 

-- Tick (119197000) -- ISN: (82851) : S -> (0x2a) at (0x7fffffffecf8) -- Size = (4) -- vaddr (0x7fffffffecf8) -- paddr (0xc5cf8) 

-- Tick (119197500) -- ISN: (82847) : S -> (0x0) at (0x6bc4e4) -- Size = (4) -- vaddr (0x6bc4e4) -- paddr (0xbc4e4) 

-- Tick (119197500) -- ISN: (82852) : L from (0x7fffffffecf8) -- of Size = (4) -- vaddr (0x7fffffffecf8) -- paddr (0xc5cf8) 

-- Tick (119197500) -- ISN: (82858) : L from (0x7fffffffecf8) -- of Size = (4) -- vaddr (0x7fffffffecf8) -- paddr (0xc5cf8) 

-- Tick (119198000) -- ISN: (82865) : L from (0x7fffffffecf8) -- of Size = (4) -- vaddr (0x7fffffffecf8) -- paddr (0xc5cf8) 

-- Tick (119199500) -- ISN: (82864) : S -> (0x0) at (0x6bc4e8) -- Size = (4) -- vaddr (0x6bc4e8) -- paddr (0xbc4e8) 

-- Tick (119199500) -- ISN: (82868) : S -> (0x2b) at (0x7fffffffecf8) -- Size = (4) -- vaddr (0x7fffffffecf8) -- paddr (0xc5cf8) 

-- Tick (119200000) -- ISN: (82869) : L from (0x7fffffffecf8) -- of Size = (4) -- vaddr (0x7fffffffecf8) -- paddr (0xc5cf8) 

-- Tick (119200000) -- ISN: (82875) : L from (0x7fffffffecf8) -- of Size = (4) -- vaddr (0x7fffffffecf8) -- paddr (0xc5cf8) 

-- Tick (119200000) -- ISN: (82882) : L from (0x7fffffffecf8) -- of Size = (4) -- vaddr (0x7fffffffecf8) -- paddr (0xc5cf8) 

-- Tick (119201500) -- ISN: (82885) : S -> (0x2c) at (0x7fffffffecf8) -- Size = (4) -- vaddr (0x7fffffffecf8) -- paddr (0xc5cf8) 

-- Tick (119202000) -- ISN: (82881) : S -> (0x0) at (0x6bc4ec) -- Size = (4) -- vaddr (0x6bc4ec) -- paddr (0xbc4ec) 

-- Tick (119202000) -- ISN: (82886) : L from (0x7fffffffecf8) -- of Size = (4) -- vaddr (0x7fffffffecf8) -- paddr (0xc5cf8) 

-- Tick (119202000) -- ISN: (82892) : L from (0x7fffffffecf8) -- of Size = (4) -- vaddr (0x7fffffffecf8) -- paddr (0xc5cf8) 

-- Tick (119202000) -- ISN: (82899) : L from (0x7fffffffecf8) -- of Size = (4) -- vaddr (0x7fffffffecf8) -- paddr (0xc5cf8) 

-- Tick (119203500) -- ISN: (82902) : S -> (0x2d) at (0x7fffffffecf8) -- Size = (4) -- vaddr (0x7fffffffecf8) -- paddr (0xc5cf8) 

-- Tick (119204000) -- ISN: (82898) : S -> (0x0) at (0x6bc4f0) -- Size = (4) -- vaddr (0x6bc4f0) -- paddr (0xbc4f0) 

-- Tick (119204000) -- ISN: (82903) : L from (0x7fffffffecf8) -- of Size = (4) -- vaddr (0x7fffffffecf8) -- paddr (0xc5cf8) 

-- Tick (119204000) -- ISN: (82909) : L from (0x7fffffffecf8) -- of Size = (4) -- vaddr (0x7fffffffecf8) -- paddr (0xc5cf8) 

-- Tick (119204000) -- ISN: (82916) : L from (0x7fffffffecf8) -- of Size = (4) -- vaddr (0x7fffffffecf8) -- paddr (0xc5cf8) 

-- Tick (119205500) -- ISN: (82919) : S -> (0x2e) at (0x7fffffffecf8) -- Size = (4) -- vaddr (0x7fffffffecf8) -- paddr (0xc5cf8) 

-- Tick (119206000) -- ISN: (82915) : S -> (0x0) at (0x6bc4f4) -- Size = (4) -- vaddr (0x6bc4f4) -- paddr (0xbc4f4) 

-- Tick (119206000) -- ISN: (82920) : L from (0x7fffffffecf8) -- of Size = (4) -- vaddr (0x7fffffffecf8) -- paddr (0xc5cf8) 

-- Tick (119206000) -- ISN: (82926) : L from (0x7fffffffecf8) -- of Size = (4) -- vaddr (0x7fffffffecf8) -- paddr (0xc5cf8) 

-- Tick (119206000) -- ISN: (82933) : L from (0x7fffffffecf8) -- of Size = (4) -- vaddr (0x7fffffffecf8) -- paddr (0xc5cf8) 

-- Tick (119207500) -- ISN: (82936) : S -> (0x2f) at (0x7fffffffecf8) -- Size = (4) -- vaddr (0x7fffffffecf8) -- paddr (0xc5cf8) 

-- Tick (119208000) -- ISN: (82932) : S -> (0x0) at (0x6bc4f8) -- Size = (4) -- vaddr (0x6bc4f8) -- paddr (0xbc4f8) 

-- Tick (119208000) -- ISN: (82937) : L from (0x7fffffffecf8) -- of Size = (4) -- vaddr (0x7fffffffecf8) -- paddr (0xc5cf8) 

-- Tick (119208000) -- ISN: (82943) : L from (0x7fffffffecf8) -- of Size = (4) -- vaddr (0x7fffffffecf8) -- paddr (0xc5cf8) 

-- Tick (119208000) -- ISN: (82950) : L from (0x7fffffffecf8) -- of Size = (4) -- vaddr (0x7fffffffecf8) -- paddr (0xc5cf8) 

-- Tick (119209500) -- ISN: (82953) : S -> (0x30) at (0x7fffffffecf8) -- Size = (4) -- vaddr (0x7fffffffecf8) -- paddr (0xc5cf8) 

-- Tick (119210000) -- ISN: (82949) : S -> (0x0) at (0x6bc4fc) -- Size = (4) -- vaddr (0x6bc4fc) -- paddr (0xbc4fc) 

-- Tick (119210000) -- ISN: (82954) : L from (0x7fffffffecf8) -- of Size = (4) -- vaddr (0x7fffffffecf8) -- paddr (0xc5cf8) 

-- Tick (119210000) -- ISN: (82960) : L from (0x7fffffffecf8) -- of Size = (4) -- vaddr (0x7fffffffecf8) -- paddr (0xc5cf8) 

-- Tick (119210000) -- ISN: (82967) : L from (0x7fffffffecf8) -- of Size = (4) -- vaddr (0x7fffffffecf8) -- paddr (0xc5cf8) 

-- Tick (119212000) -- ISN: (82966) : S -> (0x0) at (0x6bc500) -- Size = (4) -- vaddr (0x6bc500) -- paddr (0xbc500) 

-- Tick (119260000) -- ISN: (82970) : S -> (0x31) at (0x7fffffffecf8) -- Size = (4) -- vaddr (0x7fffffffecf8) -- paddr (0xc5cf8) 

-- Tick (119260500) -- ISN: (82971) : L from (0x7fffffffecf8) -- of Size = (4) -- vaddr (0x7fffffffecf8) -- paddr (0xc5cf8) 

-- Tick (119260500) -- ISN: (82977) : L from (0x7fffffffecf8) -- of Size = (4) -- vaddr (0x7fffffffecf8) -- paddr (0xc5cf8) 

-- Tick (119284500) -- ISN: (82983) : S -> (0x0) at (0x6bc504) -- Size = (4) -- vaddr (0x6bc504) -- paddr (0xbc504) 

-- Tick (119284500) -- ISN: (82984) : L from (0x7fffffffecf8) -- of Size = (4) -- vaddr (0x7fffffffecf8) -- paddr (0xc5cf8) 

-- Tick (119312000) -- ISN: (82987) : S -> (0x32) at (0x7fffffffecf8) -- Size = (4) -- vaddr (0x7fffffffecf8) -- paddr (0xc5cf8) 

-- Tick (119312500) -- ISN: (82988) : L from (0x7fffffffecf8) -- of Size = (4) -- vaddr (0x7fffffffecf8) -- paddr (0xc5cf8) 

-- Tick (119312500) -- ISN: (82994) : L from (0x7fffffffecf8) -- of Size = (4) -- vaddr (0x7fffffffecf8) -- paddr (0xc5cf8) 

-- Tick (119336500) -- ISN: (83000) : S -> (0x0) at (0x6bc508) -- Size = (4) -- vaddr (0x6bc508) -- paddr (0xbc508) 

-- Tick (119336500) -- ISN: (83001) : L from (0x7fffffffecf8) -- of Size = (4) -- vaddr (0x7fffffffecf8) -- paddr (0xc5cf8) 

-- Tick (119364000) -- ISN: (83004) : S -> (0x33) at (0x7fffffffecf8) -- Size = (4) -- vaddr (0x7fffffffecf8) -- paddr (0xc5cf8) 

-- Tick (119364500) -- ISN: (83005) : L from (0x7fffffffecf8) -- of Size = (4) -- vaddr (0x7fffffffecf8) -- paddr (0xc5cf8) 

-- Tick (119365000) -- ISN: (83011) : L from (0x7fffffffecf8) -- of Size = (4) -- vaddr (0x7fffffffecf8) -- paddr (0xc5cf8) 

-- Tick (119388500) -- ISN: (83017) : S -> (0x0) at (0x6bc50c) -- Size = (4) -- vaddr (0x6bc50c) -- paddr (0xbc50c) 

-- Tick (119388500) -- ISN: (83018) : L from (0x7fffffffecf8) -- of Size = (4) -- vaddr (0x7fffffffecf8) -- paddr (0xc5cf8) 

-- Tick (119416000) -- ISN: (83021) : S -> (0x34) at (0x7fffffffecf8) -- Size = (4) -- vaddr (0x7fffffffecf8) -- paddr (0xc5cf8) 

-- Tick (119416500) -- ISN: (83022) : L from (0x7fffffffecf8) -- of Size = (4) -- vaddr (0x7fffffffecf8) -- paddr (0xc5cf8) 

-- Tick (119417000) -- ISN: (83028) : L from (0x7fffffffecf8) -- of Size = (4) -- vaddr (0x7fffffffecf8) -- paddr (0xc5cf8) 

-- Tick (119440500) -- ISN: (83034) : S -> (0x0) at (0x6bc510) -- Size = (4) -- vaddr (0x6bc510) -- paddr (0xbc510) 

-- Tick (119440500) -- ISN: (83035) : L from (0x7fffffffecf8) -- of Size = (4) -- vaddr (0x7fffffffecf8) -- paddr (0xc5cf8) 

-- Tick (119468000) -- ISN: (83038) : S -> (0x35) at (0x7fffffffecf8) -- Size = (4) -- vaddr (0x7fffffffecf8) -- paddr (0xc5cf8) 

-- Tick (119468500) -- ISN: (83039) : L from (0x7fffffffecf8) -- of Size = (4) -- vaddr (0x7fffffffecf8) -- paddr (0xc5cf8) 

-- Tick (119469000) -- ISN: (83045) : L from (0x7fffffffecf8) -- of Size = (4) -- vaddr (0x7fffffffecf8) -- paddr (0xc5cf8) 

-- Tick (119492500) -- ISN: (83051) : S -> (0x0) at (0x6bc514) -- Size = (4) -- vaddr (0x6bc514) -- paddr (0xbc514) 

-- Tick (119492500) -- ISN: (83052) : L from (0x7fffffffecf8) -- of Size = (4) -- vaddr (0x7fffffffecf8) -- paddr (0xc5cf8) 

-- Tick (119520000) -- ISN: (83055) : S -> (0x36) at (0x7fffffffecf8) -- Size = (4) -- vaddr (0x7fffffffecf8) -- paddr (0xc5cf8) 

-- Tick (119520500) -- ISN: (83056) : L from (0x7fffffffecf8) -- of Size = (4) -- vaddr (0x7fffffffecf8) -- paddr (0xc5cf8) 

-- Tick (119521000) -- ISN: (83062) : L from (0x7fffffffecf8) -- of Size = (4) -- vaddr (0x7fffffffecf8) -- paddr (0xc5cf8) 

-- Tick (119544500) -- ISN: (83068) : S -> (0x0) at (0x6bc518) -- Size = (4) -- vaddr (0x6bc518) -- paddr (0xbc518) 

-- Tick (119544500) -- ISN: (83069) : L from (0x7fffffffecf8) -- of Size = (4) -- vaddr (0x7fffffffecf8) -- paddr (0xc5cf8) 

-- Tick (119572000) -- ISN: (83072) : S -> (0x37) at (0x7fffffffecf8) -- Size = (4) -- vaddr (0x7fffffffecf8) -- paddr (0xc5cf8) 

-- Tick (119573000) -- ISN: (83073) : L from (0x7fffffffecf8) -- of Size = (4) -- vaddr (0x7fffffffecf8) -- paddr (0xc5cf8) 

-- Tick (119573000) -- ISN: (83079) : L from (0x7fffffffecf8) -- of Size = (4) -- vaddr (0x7fffffffecf8) -- paddr (0xc5cf8) 

-- Tick (119596500) -- ISN: (83085) : S -> (0x0) at (0x6bc51c) -- Size = (4) -- vaddr (0x6bc51c) -- paddr (0xbc51c) 

-- Tick (119596500) -- ISN: (83086) : L from (0x7fffffffecf8) -- of Size = (4) -- vaddr (0x7fffffffecf8) -- paddr (0xc5cf8) 

-- Tick (119624000) -- ISN: (83089) : S -> (0x38) at (0x7fffffffecf8) -- Size = (4) -- vaddr (0x7fffffffecf8) -- paddr (0xc5cf8) 

-- Tick (119624500) -- ISN: (83090) : L from (0x7fffffffecf8) -- of Size = (4) -- vaddr (0x7fffffffecf8) -- paddr (0xc5cf8) 

-- Tick (119624500) -- ISN: (83096) : L from (0x7fffffffecf8) -- of Size = (4) -- vaddr (0x7fffffffecf8) -- paddr (0xc5cf8) 

-- Tick (119648500) -- ISN: (83102) : S -> (0x0) at (0x6bc520) -- Size = (4) -- vaddr (0x6bc520) -- paddr (0xbc520) 

-- Tick (119648500) -- ISN: (83103) : L from (0x7fffffffecf8) -- of Size = (4) -- vaddr (0x7fffffffecf8) -- paddr (0xc5cf8) 

-- Tick (119676000) -- ISN: (83106) : S -> (0x39) at (0x7fffffffecf8) -- Size = (4) -- vaddr (0x7fffffffecf8) -- paddr (0xc5cf8) 

-- Tick (119676500) -- ISN: (83107) : L from (0x7fffffffecf8) -- of Size = (4) -- vaddr (0x7fffffffecf8) -- paddr (0xc5cf8) 

-- Tick (119676500) -- ISN: (83113) : L from (0x7fffffffecf8) -- of Size = (4) -- vaddr (0x7fffffffecf8) -- paddr (0xc5cf8) 

-- Tick (119700500) -- ISN: (83119) : S -> (0x0) at (0x6bc524) -- Size = (4) -- vaddr (0x6bc524) -- paddr (0xbc524) 

-- Tick (119700500) -- ISN: (83120) : L from (0x7fffffffecf8) -- of Size = (4) -- vaddr (0x7fffffffecf8) -- paddr (0xc5cf8) 

-- Tick (119728000) -- ISN: (83123) : S -> (0x3a) at (0x7fffffffecf8) -- Size = (4) -- vaddr (0x7fffffffecf8) -- paddr (0xc5cf8) 

-- Tick (119728500) -- ISN: (83124) : L from (0x7fffffffecf8) -- of Size = (4) -- vaddr (0x7fffffffecf8) -- paddr (0xc5cf8) 

-- Tick (119729000) -- ISN: (83130) : L from (0x7fffffffecf8) -- of Size = (4) -- vaddr (0x7fffffffecf8) -- paddr (0xc5cf8) 

-- Tick (119752500) -- ISN: (83136) : S -> (0x0) at (0x6bc528) -- Size = (4) -- vaddr (0x6bc528) -- paddr (0xbc528) 

-- Tick (119752500) -- ISN: (83137) : L from (0x7fffffffecf8) -- of Size = (4) -- vaddr (0x7fffffffecf8) -- paddr (0xc5cf8) 

-- Tick (119780000) -- ISN: (83140) : S -> (0x3b) at (0x7fffffffecf8) -- Size = (4) -- vaddr (0x7fffffffecf8) -- paddr (0xc5cf8) 

-- Tick (119780500) -- ISN: (83141) : L from (0x7fffffffecf8) -- of Size = (4) -- vaddr (0x7fffffffecf8) -- paddr (0xc5cf8) 

-- Tick (119781000) -- ISN: (83147) : L from (0x7fffffffecf8) -- of Size = (4) -- vaddr (0x7fffffffecf8) -- paddr (0xc5cf8) 

-- Tick (119806000) -- ISN: (83153) : S -> (0x0) at (0x6bc52c) -- Size = (4) -- vaddr (0x6bc52c) -- paddr (0xbc52c) 

-- Tick (119806000) -- ISN: (83154) : L from (0x7fffffffecf8) -- of Size = (4) -- vaddr (0x7fffffffecf8) -- paddr (0xc5cf8) 

-- Tick (119830500) -- ISN: (83157) : S -> (0x3c) at (0x7fffffffecf8) -- Size = (4) -- vaddr (0x7fffffffecf8) -- paddr (0xc5cf8) 

-- Tick (119831000) -- ISN: (83158) : L from (0x7fffffffecf8) -- of Size = (4) -- vaddr (0x7fffffffecf8) -- paddr (0xc5cf8) 

-- Tick (119831000) -- ISN: (83164) : L from (0x7fffffffecf8) -- of Size = (4) -- vaddr (0x7fffffffecf8) -- paddr (0xc5cf8) 

-- Tick (119858000) -- ISN: (83170) : S -> (0x0) at (0x6bc530) -- Size = (4) -- vaddr (0x6bc530) -- paddr (0xbc530) 

-- Tick (119858000) -- ISN: (83171) : L from (0x7fffffffecf8) -- of Size = (4) -- vaddr (0x7fffffffecf8) -- paddr (0xc5cf8) 

-- Tick (119882500) -- ISN: (83174) : S -> (0x3d) at (0x7fffffffecf8) -- Size = (4) -- vaddr (0x7fffffffecf8) -- paddr (0xc5cf8) 

-- Tick (119883000) -- ISN: (83175) : L from (0x7fffffffecf8) -- of Size = (4) -- vaddr (0x7fffffffecf8) -- paddr (0xc5cf8) 

-- Tick (119883000) -- ISN: (83181) : L from (0x7fffffffecf8) -- of Size = (4) -- vaddr (0x7fffffffecf8) -- paddr (0xc5cf8) 

-- Tick (119910000) -- ISN: (83187) : S -> (0x0) at (0x6bc534) -- Size = (4) -- vaddr (0x6bc534) -- paddr (0xbc534) 

-- Tick (119910000) -- ISN: (83188) : L from (0x7fffffffecf8) -- of Size = (4) -- vaddr (0x7fffffffecf8) -- paddr (0xc5cf8) 

-- Tick (119934500) -- ISN: (83191) : S -> (0x3e) at (0x7fffffffecf8) -- Size = (4) -- vaddr (0x7fffffffecf8) -- paddr (0xc5cf8) 

-- Tick (119935000) -- ISN: (83192) : L from (0x7fffffffecf8) -- of Size = (4) -- vaddr (0x7fffffffecf8) -- paddr (0xc5cf8) 

-- Tick (119935000) -- ISN: (83198) : L from (0x7fffffffecf8) -- of Size = (4) -- vaddr (0x7fffffffecf8) -- paddr (0xc5cf8) 

-- Tick (119962000) -- ISN: (83204) : S -> (0x0) at (0x6bc538) -- Size = (4) -- vaddr (0x6bc538) -- paddr (0xbc538) 

-- Tick (119962000) -- ISN: (83205) : L from (0x7fffffffecf8) -- of Size = (4) -- vaddr (0x7fffffffecf8) -- paddr (0xc5cf8) 

-- Tick (119986500) -- ISN: (83208) : S -> (0x3f) at (0x7fffffffecf8) -- Size = (4) -- vaddr (0x7fffffffecf8) -- paddr (0xc5cf8) 

-- Tick (119987000) -- ISN: (83209) : L from (0x7fffffffecf8) -- of Size = (4) -- vaddr (0x7fffffffecf8) -- paddr (0xc5cf8) 

-- Tick (119987000) -- ISN: (83215) : L from (0x7fffffffecf8) -- of Size = (4) -- vaddr (0x7fffffffecf8) -- paddr (0xc5cf8) 

-- Tick (120014000) -- ISN: (83221) : S -> (0x0) at (0x6bc53c) -- Size = (4) -- vaddr (0x6bc53c) -- paddr (0xbc53c) 

-- Tick (120014000) -- ISN: (83222) : L from (0x7fffffffecf8) -- of Size = (4) -- vaddr (0x7fffffffecf8) -- paddr (0xc5cf8) 

-- Tick (120038500) -- ISN: (83225) : S -> (0x40) at (0x7fffffffecf8) -- Size = (4) -- vaddr (0x7fffffffecf8) -- paddr (0xc5cf8) 

-- Tick (120039000) -- ISN: (83226) : L from (0x7fffffffecf8) -- of Size = (4) -- vaddr (0x7fffffffecf8) -- paddr (0xc5cf8) 

-- Tick (120039000) -- ISN: (83232) : L from (0x7fffffffecf8) -- of Size = (4) -- vaddr (0x7fffffffecf8) -- paddr (0xc5cf8) 

-- Tick (120066000) -- ISN: (83238) : S -> (0x0) at (0x6bc540) -- Size = (4) -- vaddr (0x6bc540) -- paddr (0xbc540) 

-- Tick (120066000) -- ISN: (83239) : L from (0x7fffffffecf8) -- of Size = (4) -- vaddr (0x7fffffffecf8) -- paddr (0xc5cf8) 

-- Tick (120119500) -- ISN: (83242) : S -> (0x41) at (0x7fffffffecf8) -- Size = (4) -- vaddr (0x7fffffffecf8) -- paddr (0xc5cf8) 

-- Tick (120120000) -- ISN: (83243) : L from (0x7fffffffecf8) -- of Size = (4) -- vaddr (0x7fffffffecf8) -- paddr (0xc5cf8) 

-- Tick (120120000) -- ISN: (83249) : L from (0x7fffffffecf8) -- of Size = (4) -- vaddr (0x7fffffffecf8) -- paddr (0xc5cf8) 

-- Tick (120122000) -- ISN: (83255) : S -> (0x0) at (0x6bc544) -- Size = (4) -- vaddr (0x6bc544) -- paddr (0xbc544) 

-- Tick (120122000) -- ISN: (83256) : L from (0x7fffffffecf8) -- of Size = (4) -- vaddr (0x7fffffffecf8) -- paddr (0xc5cf8) 

-- Tick (120123500) -- ISN: (83259) : S -> (0x42) at (0x7fffffffecf8) -- Size = (4) -- vaddr (0x7fffffffecf8) -- paddr (0xc5cf8) 

-- Tick (120124000) -- ISN: (83260) : L from (0x7fffffffecf8) -- of Size = (4) -- vaddr (0x7fffffffecf8) -- paddr (0xc5cf8) 

-- Tick (120124000) -- ISN: (83266) : L from (0x7fffffffecf8) -- of Size = (4) -- vaddr (0x7fffffffecf8) -- paddr (0xc5cf8) 

-- Tick (120125000) -- ISN: (83273) : L from (0x7fffffffecf8) -- of Size = (4) -- vaddr (0x7fffffffecf8) -- paddr (0xc5cf8) 

-- Tick (120126000) -- ISN: (83272) : S -> (0x0) at (0x6bc548) -- Size = (4) -- vaddr (0x6bc548) -- paddr (0xbc548) 

-- Tick (120126500) -- ISN: (83276) : S -> (0x43) at (0x7fffffffecf8) -- Size = (4) -- vaddr (0x7fffffffecf8) -- paddr (0xc5cf8) 

-- Tick (120127000) -- ISN: (83277) : L from (0x7fffffffecf8) -- of Size = (4) -- vaddr (0x7fffffffecf8) -- paddr (0xc5cf8) 

-- Tick (120127000) -- ISN: (83283) : L from (0x7fffffffecf8) -- of Size = (4) -- vaddr (0x7fffffffecf8) -- paddr (0xc5cf8) 

-- Tick (120127000) -- ISN: (83290) : L from (0x7fffffffecf8) -- of Size = (4) -- vaddr (0x7fffffffecf8) -- paddr (0xc5cf8) 

-- Tick (120128500) -- ISN: (83293) : S -> (0x44) at (0x7fffffffecf8) -- Size = (4) -- vaddr (0x7fffffffecf8) -- paddr (0xc5cf8) 

-- Tick (120129000) -- ISN: (83289) : S -> (0x0) at (0x6bc54c) -- Size = (4) -- vaddr (0x6bc54c) -- paddr (0xbc54c) 

-- Tick (120129000) -- ISN: (83294) : L from (0x7fffffffecf8) -- of Size = (4) -- vaddr (0x7fffffffecf8) -- paddr (0xc5cf8) 

-- Tick (120129000) -- ISN: (83300) : L from (0x7fffffffecf8) -- of Size = (4) -- vaddr (0x7fffffffecf8) -- paddr (0xc5cf8) 

-- Tick (120129000) -- ISN: (83307) : L from (0x7fffffffecf8) -- of Size = (4) -- vaddr (0x7fffffffecf8) -- paddr (0xc5cf8) 

-- Tick (120130500) -- ISN: (83310) : S -> (0x45) at (0x7fffffffecf8) -- Size = (4) -- vaddr (0x7fffffffecf8) -- paddr (0xc5cf8) 

-- Tick (120131000) -- ISN: (83306) : S -> (0x0) at (0x6bc550) -- Size = (4) -- vaddr (0x6bc550) -- paddr (0xbc550) 

-- Tick (120131000) -- ISN: (83311) : L from (0x7fffffffecf8) -- of Size = (4) -- vaddr (0x7fffffffecf8) -- paddr (0xc5cf8) 

-- Tick (120131000) -- ISN: (83317) : L from (0x7fffffffecf8) -- of Size = (4) -- vaddr (0x7fffffffecf8) -- paddr (0xc5cf8) 

-- Tick (120131000) -- ISN: (83324) : L from (0x7fffffffecf8) -- of Size = (4) -- vaddr (0x7fffffffecf8) -- paddr (0xc5cf8) 

-- Tick (120132500) -- ISN: (83327) : S -> (0x46) at (0x7fffffffecf8) -- Size = (4) -- vaddr (0x7fffffffecf8) -- paddr (0xc5cf8) 

-- Tick (120133000) -- ISN: (83323) : S -> (0x0) at (0x6bc554) -- Size = (4) -- vaddr (0x6bc554) -- paddr (0xbc554) 

-- Tick (120133000) -- ISN: (83328) : L from (0x7fffffffecf8) -- of Size = (4) -- vaddr (0x7fffffffecf8) -- paddr (0xc5cf8) 

-- Tick (120133000) -- ISN: (83334) : L from (0x7fffffffecf8) -- of Size = (4) -- vaddr (0x7fffffffecf8) -- paddr (0xc5cf8) 

-- Tick (120133000) -- ISN: (83341) : L from (0x7fffffffecf8) -- of Size = (4) -- vaddr (0x7fffffffecf8) -- paddr (0xc5cf8) 

-- Tick (120134500) -- ISN: (83344) : S -> (0x47) at (0x7fffffffecf8) -- Size = (4) -- vaddr (0x7fffffffecf8) -- paddr (0xc5cf8) 

-- Tick (120135000) -- ISN: (83340) : S -> (0x0) at (0x6bc558) -- Size = (4) -- vaddr (0x6bc558) -- paddr (0xbc558) 

-- Tick (120135000) -- ISN: (83345) : L from (0x7fffffffecf8) -- of Size = (4) -- vaddr (0x7fffffffecf8) -- paddr (0xc5cf8) 

-- Tick (120135000) -- ISN: (83351) : L from (0x7fffffffecf8) -- of Size = (4) -- vaddr (0x7fffffffecf8) -- paddr (0xc5cf8) 

-- Tick (120135000) -- ISN: (83358) : L from (0x7fffffffecf8) -- of Size = (4) -- vaddr (0x7fffffffecf8) -- paddr (0xc5cf8) 

-- Tick (120136500) -- ISN: (83361) : S -> (0x48) at (0x7fffffffecf8) -- Size = (4) -- vaddr (0x7fffffffecf8) -- paddr (0xc5cf8) 

-- Tick (120137000) -- ISN: (83357) : S -> (0x0) at (0x6bc55c) -- Size = (4) -- vaddr (0x6bc55c) -- paddr (0xbc55c) 

-- Tick (120137000) -- ISN: (83362) : L from (0x7fffffffecf8) -- of Size = (4) -- vaddr (0x7fffffffecf8) -- paddr (0xc5cf8) 

-- Tick (120137000) -- ISN: (83368) : L from (0x7fffffffecf8) -- of Size = (4) -- vaddr (0x7fffffffecf8) -- paddr (0xc5cf8) 

-- Tick (120137000) -- ISN: (83375) : L from (0x7fffffffecf8) -- of Size = (4) -- vaddr (0x7fffffffecf8) -- paddr (0xc5cf8) 

-- Tick (120138500) -- ISN: (83378) : S -> (0x49) at (0x7fffffffecf8) -- Size = (4) -- vaddr (0x7fffffffecf8) -- paddr (0xc5cf8) 

-- Tick (120139000) -- ISN: (83374) : S -> (0x0) at (0x6bc560) -- Size = (4) -- vaddr (0x6bc560) -- paddr (0xbc560) 

-- Tick (120139000) -- ISN: (83379) : L from (0x7fffffffecf8) -- of Size = (4) -- vaddr (0x7fffffffecf8) -- paddr (0xc5cf8) 

-- Tick (120139000) -- ISN: (83385) : L from (0x7fffffffecf8) -- of Size = (4) -- vaddr (0x7fffffffecf8) -- paddr (0xc5cf8) 

-- Tick (120139000) -- ISN: (83392) : L from (0x7fffffffecf8) -- of Size = (4) -- vaddr (0x7fffffffecf8) -- paddr (0xc5cf8) 

-- Tick (120140500) -- ISN: (83395) : S -> (0x4a) at (0x7fffffffecf8) -- Size = (4) -- vaddr (0x7fffffffecf8) -- paddr (0xc5cf8) 

-- Tick (120141000) -- ISN: (83391) : S -> (0x0) at (0x6bc564) -- Size = (4) -- vaddr (0x6bc564) -- paddr (0xbc564) 

-- Tick (120141000) -- ISN: (83396) : L from (0x7fffffffecf8) -- of Size = (4) -- vaddr (0x7fffffffecf8) -- paddr (0xc5cf8) 

-- Tick (120141000) -- ISN: (83402) : L from (0x7fffffffecf8) -- of Size = (4) -- vaddr (0x7fffffffecf8) -- paddr (0xc5cf8) 

-- Tick (120141000) -- ISN: (83409) : L from (0x7fffffffecf8) -- of Size = (4) -- vaddr (0x7fffffffecf8) -- paddr (0xc5cf8) 

-- Tick (120142500) -- ISN: (83412) : S -> (0x4b) at (0x7fffffffecf8) -- Size = (4) -- vaddr (0x7fffffffecf8) -- paddr (0xc5cf8) 

-- Tick (120143000) -- ISN: (83408) : S -> (0x0) at (0x6bc568) -- Size = (4) -- vaddr (0x6bc568) -- paddr (0xbc568) 

-- Tick (120143000) -- ISN: (83413) : L from (0x7fffffffecf8) -- of Size = (4) -- vaddr (0x7fffffffecf8) -- paddr (0xc5cf8) 

-- Tick (120143000) -- ISN: (83419) : L from (0x7fffffffecf8) -- of Size = (4) -- vaddr (0x7fffffffecf8) -- paddr (0xc5cf8) 

-- Tick (120143000) -- ISN: (83426) : L from (0x7fffffffecf8) -- of Size = (4) -- vaddr (0x7fffffffecf8) -- paddr (0xc5cf8) 

-- Tick (120144500) -- ISN: (83429) : S -> (0x4c) at (0x7fffffffecf8) -- Size = (4) -- vaddr (0x7fffffffecf8) -- paddr (0xc5cf8) 

-- Tick (120145000) -- ISN: (83425) : S -> (0x0) at (0x6bc56c) -- Size = (4) -- vaddr (0x6bc56c) -- paddr (0xbc56c) 

-- Tick (120145000) -- ISN: (83430) : L from (0x7fffffffecf8) -- of Size = (4) -- vaddr (0x7fffffffecf8) -- paddr (0xc5cf8) 

-- Tick (120145000) -- ISN: (83436) : L from (0x7fffffffecf8) -- of Size = (4) -- vaddr (0x7fffffffecf8) -- paddr (0xc5cf8) 

-- Tick (120145000) -- ISN: (83443) : L from (0x7fffffffecf8) -- of Size = (4) -- vaddr (0x7fffffffecf8) -- paddr (0xc5cf8) 

-- Tick (120146500) -- ISN: (83446) : S -> (0x4d) at (0x7fffffffecf8) -- Size = (4) -- vaddr (0x7fffffffecf8) -- paddr (0xc5cf8) 

-- Tick (120147000) -- ISN: (83442) : S -> (0x0) at (0x6bc570) -- Size = (4) -- vaddr (0x6bc570) -- paddr (0xbc570) 

-- Tick (120147000) -- ISN: (83447) : L from (0x7fffffffecf8) -- of Size = (4) -- vaddr (0x7fffffffecf8) -- paddr (0xc5cf8) 

-- Tick (120147000) -- ISN: (83453) : L from (0x7fffffffecf8) -- of Size = (4) -- vaddr (0x7fffffffecf8) -- paddr (0xc5cf8) 

-- Tick (120147000) -- ISN: (83460) : L from (0x7fffffffecf8) -- of Size = (4) -- vaddr (0x7fffffffecf8) -- paddr (0xc5cf8) 

-- Tick (120148500) -- ISN: (83463) : S -> (0x4e) at (0x7fffffffecf8) -- Size = (4) -- vaddr (0x7fffffffecf8) -- paddr (0xc5cf8) 

-- Tick (120149000) -- ISN: (83459) : S -> (0x0) at (0x6bc574) -- Size = (4) -- vaddr (0x6bc574) -- paddr (0xbc574) 

-- Tick (120149000) -- ISN: (83464) : L from (0x7fffffffecf8) -- of Size = (4) -- vaddr (0x7fffffffecf8) -- paddr (0xc5cf8) 

-- Tick (120149000) -- ISN: (83470) : L from (0x7fffffffecf8) -- of Size = (4) -- vaddr (0x7fffffffecf8) -- paddr (0xc5cf8) 

-- Tick (120149000) -- ISN: (83477) : L from (0x7fffffffecf8) -- of Size = (4) -- vaddr (0x7fffffffecf8) -- paddr (0xc5cf8) 

-- Tick (120150500) -- ISN: (83480) : S -> (0x4f) at (0x7fffffffecf8) -- Size = (4) -- vaddr (0x7fffffffecf8) -- paddr (0xc5cf8) 

-- Tick (120151000) -- ISN: (83476) : S -> (0x0) at (0x6bc578) -- Size = (4) -- vaddr (0x6bc578) -- paddr (0xbc578) 

-- Tick (120151000) -- ISN: (83481) : L from (0x7fffffffecf8) -- of Size = (4) -- vaddr (0x7fffffffecf8) -- paddr (0xc5cf8) 

-- Tick (120151000) -- ISN: (83487) : L from (0x7fffffffecf8) -- of Size = (4) -- vaddr (0x7fffffffecf8) -- paddr (0xc5cf8) 

-- Tick (120151000) -- ISN: (83494) : L from (0x7fffffffecf8) -- of Size = (4) -- vaddr (0x7fffffffecf8) -- paddr (0xc5cf8) 

-- Tick (120152500) -- ISN: (83497) : S -> (0x50) at (0x7fffffffecf8) -- Size = (4) -- vaddr (0x7fffffffecf8) -- paddr (0xc5cf8) 

-- Tick (120153000) -- ISN: (83493) : S -> (0x0) at (0x6bc57c) -- Size = (4) -- vaddr (0x6bc57c) -- paddr (0xbc57c) 

-- Tick (120153000) -- ISN: (83498) : L from (0x7fffffffecf8) -- of Size = (4) -- vaddr (0x7fffffffecf8) -- paddr (0xc5cf8) 

-- Tick (120153000) -- ISN: (83504) : L from (0x7fffffffecf8) -- of Size = (4) -- vaddr (0x7fffffffecf8) -- paddr (0xc5cf8) 

-- Tick (120153000) -- ISN: (83511) : L from (0x7fffffffecf8) -- of Size = (4) -- vaddr (0x7fffffffecf8) -- paddr (0xc5cf8) 

-- Tick (120155000) -- ISN: (83510) : S -> (0x0) at (0x6bc580) -- Size = (4) -- vaddr (0x6bc580) -- paddr (0xbc580) 

-- Tick (120203000) -- ISN: (83514) : S -> (0x51) at (0x7fffffffecf8) -- Size = (4) -- vaddr (0x7fffffffecf8) -- paddr (0xc5cf8) 

-- Tick (120203500) -- ISN: (83515) : L from (0x7fffffffecf8) -- of Size = (4) -- vaddr (0x7fffffffecf8) -- paddr (0xc5cf8) 

-- Tick (120203500) -- ISN: (83521) : L from (0x7fffffffecf8) -- of Size = (4) -- vaddr (0x7fffffffecf8) -- paddr (0xc5cf8) 

-- Tick (120204000) -- ISN: (83528) : L from (0x7fffffffecf8) -- of Size = (4) -- vaddr (0x7fffffffecf8) -- paddr (0xc5cf8) 

-- Tick (120205500) -- ISN: (83527) : S -> (0x0) at (0x6bc584) -- Size = (4) -- vaddr (0x6bc584) -- paddr (0xbc584) 

-- Tick (120206000) -- ISN: (83531) : S -> (0x52) at (0x7fffffffecf8) -- Size = (4) -- vaddr (0x7fffffffecf8) -- paddr (0xc5cf8) 

-- Tick (120206500) -- ISN: (83532) : L from (0x7fffffffecf8) -- of Size = (4) -- vaddr (0x7fffffffecf8) -- paddr (0xc5cf8) 

-- Tick (120206500) -- ISN: (83538) : L from (0x7fffffffecf8) -- of Size = (4) -- vaddr (0x7fffffffecf8) -- paddr (0xc5cf8) 

-- Tick (120207000) -- ISN: (83545) : L from (0x7fffffffecf8) -- of Size = (4) -- vaddr (0x7fffffffecf8) -- paddr (0xc5cf8) 

-- Tick (120208500) -- ISN: (83544) : S -> (0x0) at (0x6bc588) -- Size = (4) -- vaddr (0x6bc588) -- paddr (0xbc588) 

-- Tick (120208500) -- ISN: (83548) : S -> (0x53) at (0x7fffffffecf8) -- Size = (4) -- vaddr (0x7fffffffecf8) -- paddr (0xc5cf8) 

-- Tick (120209000) -- ISN: (83549) : L from (0x7fffffffecf8) -- of Size = (4) -- vaddr (0x7fffffffecf8) -- paddr (0xc5cf8) 

-- Tick (120209000) -- ISN: (83555) : L from (0x7fffffffecf8) -- of Size = (4) -- vaddr (0x7fffffffecf8) -- paddr (0xc5cf8) 

-- Tick (120209000) -- ISN: (83562) : L from (0x7fffffffecf8) -- of Size = (4) -- vaddr (0x7fffffffecf8) -- paddr (0xc5cf8) 

-- Tick (120210500) -- ISN: (83565) : S -> (0x54) at (0x7fffffffecf8) -- Size = (4) -- vaddr (0x7fffffffecf8) -- paddr (0xc5cf8) 

-- Tick (120211000) -- ISN: (83561) : S -> (0x0) at (0x6bc58c) -- Size = (4) -- vaddr (0x6bc58c) -- paddr (0xbc58c) 

-- Tick (120211000) -- ISN: (83566) : L from (0x7fffffffecf8) -- of Size = (4) -- vaddr (0x7fffffffecf8) -- paddr (0xc5cf8) 

-- Tick (120211000) -- ISN: (83572) : L from (0x7fffffffecf8) -- of Size = (4) -- vaddr (0x7fffffffecf8) -- paddr (0xc5cf8) 

-- Tick (120211000) -- ISN: (83579) : L from (0x7fffffffecf8) -- of Size = (4) -- vaddr (0x7fffffffecf8) -- paddr (0xc5cf8) 

-- Tick (120212500) -- ISN: (83582) : S -> (0x55) at (0x7fffffffecf8) -- Size = (4) -- vaddr (0x7fffffffecf8) -- paddr (0xc5cf8) 

-- Tick (120213000) -- ISN: (83578) : S -> (0x0) at (0x6bc590) -- Size = (4) -- vaddr (0x6bc590) -- paddr (0xbc590) 

-- Tick (120213000) -- ISN: (83583) : L from (0x7fffffffecf8) -- of Size = (4) -- vaddr (0x7fffffffecf8) -- paddr (0xc5cf8) 

-- Tick (120213000) -- ISN: (83589) : L from (0x7fffffffecf8) -- of Size = (4) -- vaddr (0x7fffffffecf8) -- paddr (0xc5cf8) 

-- Tick (120213000) -- ISN: (83596) : L from (0x7fffffffecf8) -- of Size = (4) -- vaddr (0x7fffffffecf8) -- paddr (0xc5cf8) 

-- Tick (120214500) -- ISN: (83599) : S -> (0x56) at (0x7fffffffecf8) -- Size = (4) -- vaddr (0x7fffffffecf8) -- paddr (0xc5cf8) 

-- Tick (120215000) -- ISN: (83595) : S -> (0x0) at (0x6bc594) -- Size = (4) -- vaddr (0x6bc594) -- paddr (0xbc594) 

-- Tick (120215000) -- ISN: (83600) : L from (0x7fffffffecf8) -- of Size = (4) -- vaddr (0x7fffffffecf8) -- paddr (0xc5cf8) 

-- Tick (120215000) -- ISN: (83606) : L from (0x7fffffffecf8) -- of Size = (4) -- vaddr (0x7fffffffecf8) -- paddr (0xc5cf8) 

-- Tick (120215000) -- ISN: (83613) : L from (0x7fffffffecf8) -- of Size = (4) -- vaddr (0x7fffffffecf8) -- paddr (0xc5cf8) 

-- Tick (120216500) -- ISN: (83616) : S -> (0x57) at (0x7fffffffecf8) -- Size = (4) -- vaddr (0x7fffffffecf8) -- paddr (0xc5cf8) 

-- Tick (120217000) -- ISN: (83612) : S -> (0x0) at (0x6bc598) -- Size = (4) -- vaddr (0x6bc598) -- paddr (0xbc598) 

-- Tick (120217000) -- ISN: (83617) : L from (0x7fffffffecf8) -- of Size = (4) -- vaddr (0x7fffffffecf8) -- paddr (0xc5cf8) 

-- Tick (120217000) -- ISN: (83623) : L from (0x7fffffffecf8) -- of Size = (4) -- vaddr (0x7fffffffecf8) -- paddr (0xc5cf8) 

-- Tick (120217000) -- ISN: (83630) : L from (0x7fffffffecf8) -- of Size = (4) -- vaddr (0x7fffffffecf8) -- paddr (0xc5cf8) 

-- Tick (120218500) -- ISN: (83633) : S -> (0x58) at (0x7fffffffecf8) -- Size = (4) -- vaddr (0x7fffffffecf8) -- paddr (0xc5cf8) 

-- Tick (120219000) -- ISN: (83629) : S -> (0x0) at (0x6bc59c) -- Size = (4) -- vaddr (0x6bc59c) -- paddr (0xbc59c) 

-- Tick (120219000) -- ISN: (83634) : L from (0x7fffffffecf8) -- of Size = (4) -- vaddr (0x7fffffffecf8) -- paddr (0xc5cf8) 

-- Tick (120219000) -- ISN: (83640) : L from (0x7fffffffecf8) -- of Size = (4) -- vaddr (0x7fffffffecf8) -- paddr (0xc5cf8) 

-- Tick (120219000) -- ISN: (83647) : L from (0x7fffffffecf8) -- of Size = (4) -- vaddr (0x7fffffffecf8) -- paddr (0xc5cf8) 

-- Tick (120220500) -- ISN: (83650) : S -> (0x59) at (0x7fffffffecf8) -- Size = (4) -- vaddr (0x7fffffffecf8) -- paddr (0xc5cf8) 

-- Tick (120221000) -- ISN: (83646) : S -> (0x0) at (0x6bc5a0) -- Size = (4) -- vaddr (0x6bc5a0) -- paddr (0xbc5a0) 

-- Tick (120221000) -- ISN: (83651) : L from (0x7fffffffecf8) -- of Size = (4) -- vaddr (0x7fffffffecf8) -- paddr (0xc5cf8) 

-- Tick (120221000) -- ISN: (83657) : L from (0x7fffffffecf8) -- of Size = (4) -- vaddr (0x7fffffffecf8) -- paddr (0xc5cf8) 

-- Tick (120221000) -- ISN: (83664) : L from (0x7fffffffecf8) -- of Size = (4) -- vaddr (0x7fffffffecf8) -- paddr (0xc5cf8) 

-- Tick (120222500) -- ISN: (83667) : S -> (0x5a) at (0x7fffffffecf8) -- Size = (4) -- vaddr (0x7fffffffecf8) -- paddr (0xc5cf8) 

-- Tick (120223000) -- ISN: (83663) : S -> (0x0) at (0x6bc5a4) -- Size = (4) -- vaddr (0x6bc5a4) -- paddr (0xbc5a4) 

-- Tick (120223000) -- ISN: (83668) : L from (0x7fffffffecf8) -- of Size = (4) -- vaddr (0x7fffffffecf8) -- paddr (0xc5cf8) 

-- Tick (120223000) -- ISN: (83674) : L from (0x7fffffffecf8) -- of Size = (4) -- vaddr (0x7fffffffecf8) -- paddr (0xc5cf8) 

-- Tick (120223000) -- ISN: (83681) : L from (0x7fffffffecf8) -- of Size = (4) -- vaddr (0x7fffffffecf8) -- paddr (0xc5cf8) 

-- Tick (120224500) -- ISN: (83684) : S -> (0x5b) at (0x7fffffffecf8) -- Size = (4) -- vaddr (0x7fffffffecf8) -- paddr (0xc5cf8) 

-- Tick (120225000) -- ISN: (83680) : S -> (0x0) at (0x6bc5a8) -- Size = (4) -- vaddr (0x6bc5a8) -- paddr (0xbc5a8) 

-- Tick (120225000) -- ISN: (83685) : L from (0x7fffffffecf8) -- of Size = (4) -- vaddr (0x7fffffffecf8) -- paddr (0xc5cf8) 

-- Tick (120225000) -- ISN: (83691) : L from (0x7fffffffecf8) -- of Size = (4) -- vaddr (0x7fffffffecf8) -- paddr (0xc5cf8) 

-- Tick (120225000) -- ISN: (83698) : L from (0x7fffffffecf8) -- of Size = (4) -- vaddr (0x7fffffffecf8) -- paddr (0xc5cf8) 

-- Tick (120226500) -- ISN: (83701) : S -> (0x5c) at (0x7fffffffecf8) -- Size = (4) -- vaddr (0x7fffffffecf8) -- paddr (0xc5cf8) 

-- Tick (120227000) -- ISN: (83697) : S -> (0x0) at (0x6bc5ac) -- Size = (4) -- vaddr (0x6bc5ac) -- paddr (0xbc5ac) 

-- Tick (120227000) -- ISN: (83702) : L from (0x7fffffffecf8) -- of Size = (4) -- vaddr (0x7fffffffecf8) -- paddr (0xc5cf8) 

-- Tick (120227000) -- ISN: (83708) : L from (0x7fffffffecf8) -- of Size = (4) -- vaddr (0x7fffffffecf8) -- paddr (0xc5cf8) 

-- Tick (120227000) -- ISN: (83715) : L from (0x7fffffffecf8) -- of Size = (4) -- vaddr (0x7fffffffecf8) -- paddr (0xc5cf8) 

-- Tick (120228500) -- ISN: (83718) : S -> (0x5d) at (0x7fffffffecf8) -- Size = (4) -- vaddr (0x7fffffffecf8) -- paddr (0xc5cf8) 

-- Tick (120229000) -- ISN: (83714) : S -> (0x0) at (0x6bc5b0) -- Size = (4) -- vaddr (0x6bc5b0) -- paddr (0xbc5b0) 

-- Tick (120229000) -- ISN: (83719) : L from (0x7fffffffecf8) -- of Size = (4) -- vaddr (0x7fffffffecf8) -- paddr (0xc5cf8) 

-- Tick (120229000) -- ISN: (83725) : L from (0x7fffffffecf8) -- of Size = (4) -- vaddr (0x7fffffffecf8) -- paddr (0xc5cf8) 

-- Tick (120229000) -- ISN: (83732) : L from (0x7fffffffecf8) -- of Size = (4) -- vaddr (0x7fffffffecf8) -- paddr (0xc5cf8) 

-- Tick (120230500) -- ISN: (83735) : S -> (0x5e) at (0x7fffffffecf8) -- Size = (4) -- vaddr (0x7fffffffecf8) -- paddr (0xc5cf8) 

-- Tick (120231000) -- ISN: (83731) : S -> (0x0) at (0x6bc5b4) -- Size = (4) -- vaddr (0x6bc5b4) -- paddr (0xbc5b4) 

-- Tick (120231000) -- ISN: (83736) : L from (0x7fffffffecf8) -- of Size = (4) -- vaddr (0x7fffffffecf8) -- paddr (0xc5cf8) 

-- Tick (120231000) -- ISN: (83742) : L from (0x7fffffffecf8) -- of Size = (4) -- vaddr (0x7fffffffecf8) -- paddr (0xc5cf8) 

-- Tick (120231000) -- ISN: (83749) : L from (0x7fffffffecf8) -- of Size = (4) -- vaddr (0x7fffffffecf8) -- paddr (0xc5cf8) 

-- Tick (120232500) -- ISN: (83752) : S -> (0x5f) at (0x7fffffffecf8) -- Size = (4) -- vaddr (0x7fffffffecf8) -- paddr (0xc5cf8) 

-- Tick (120233000) -- ISN: (83748) : S -> (0x0) at (0x6bc5b8) -- Size = (4) -- vaddr (0x6bc5b8) -- paddr (0xbc5b8) 

-- Tick (120233000) -- ISN: (83753) : L from (0x7fffffffecf8) -- of Size = (4) -- vaddr (0x7fffffffecf8) -- paddr (0xc5cf8) 

-- Tick (120233000) -- ISN: (83759) : L from (0x7fffffffecf8) -- of Size = (4) -- vaddr (0x7fffffffecf8) -- paddr (0xc5cf8) 

-- Tick (120233000) -- ISN: (83766) : L from (0x7fffffffecf8) -- of Size = (4) -- vaddr (0x7fffffffecf8) -- paddr (0xc5cf8) 

-- Tick (120234500) -- ISN: (83769) : S -> (0x60) at (0x7fffffffecf8) -- Size = (4) -- vaddr (0x7fffffffecf8) -- paddr (0xc5cf8) 

-- Tick (120235000) -- ISN: (83765) : S -> (0x0) at (0x6bc5bc) -- Size = (4) -- vaddr (0x6bc5bc) -- paddr (0xbc5bc) 

-- Tick (120235000) -- ISN: (83770) : L from (0x7fffffffecf8) -- of Size = (4) -- vaddr (0x7fffffffecf8) -- paddr (0xc5cf8) 

-- Tick (120235000) -- ISN: (83776) : L from (0x7fffffffecf8) -- of Size = (4) -- vaddr (0x7fffffffecf8) -- paddr (0xc5cf8) 

-- Tick (120235000) -- ISN: (83783) : L from (0x7fffffffecf8) -- of Size = (4) -- vaddr (0x7fffffffecf8) -- paddr (0xc5cf8) 

-- Tick (120237000) -- ISN: (83782) : S -> (0x0) at (0x6bc5c0) -- Size = (4) -- vaddr (0x6bc5c0) -- paddr (0xbc5c0) 

-- Tick (120285000) -- ISN: (83786) : S -> (0x61) at (0x7fffffffecf8) -- Size = (4) -- vaddr (0x7fffffffecf8) -- paddr (0xc5cf8) 

-- Tick (120285500) -- ISN: (83787) : L from (0x7fffffffecf8) -- of Size = (4) -- vaddr (0x7fffffffecf8) -- paddr (0xc5cf8) 

-- Tick (120285500) -- ISN: (83793) : L from (0x7fffffffecf8) -- of Size = (4) -- vaddr (0x7fffffffecf8) -- paddr (0xc5cf8) 

-- Tick (120286000) -- ISN: (83800) : L from (0x7fffffffecf8) -- of Size = (4) -- vaddr (0x7fffffffecf8) -- paddr (0xc5cf8) 

-- Tick (120287500) -- ISN: (83799) : S -> (0x0) at (0x6bc5c4) -- Size = (4) -- vaddr (0x6bc5c4) -- paddr (0xbc5c4) 

-- Tick (120288000) -- ISN: (83803) : S -> (0x62) at (0x7fffffffecf8) -- Size = (4) -- vaddr (0x7fffffffecf8) -- paddr (0xc5cf8) 

-- Tick (120288500) -- ISN: (83804) : L from (0x7fffffffecf8) -- of Size = (4) -- vaddr (0x7fffffffecf8) -- paddr (0xc5cf8) 

-- Tick (120288500) -- ISN: (83810) : L from (0x7fffffffecf8) -- of Size = (4) -- vaddr (0x7fffffffecf8) -- paddr (0xc5cf8) 

-- Tick (120289000) -- ISN: (83817) : L from (0x7fffffffecf8) -- of Size = (4) -- vaddr (0x7fffffffecf8) -- paddr (0xc5cf8) 

-- Tick (120290500) -- ISN: (83816) : S -> (0x0) at (0x6bc5c8) -- Size = (4) -- vaddr (0x6bc5c8) -- paddr (0xbc5c8) 

-- Tick (120290500) -- ISN: (83820) : S -> (0x63) at (0x7fffffffecf8) -- Size = (4) -- vaddr (0x7fffffffecf8) -- paddr (0xc5cf8) 

-- Tick (120291000) -- ISN: (83821) : L from (0x7fffffffecf8) -- of Size = (4) -- vaddr (0x7fffffffecf8) -- paddr (0xc5cf8) 

-- Tick (120291000) -- ISN: (83827) : L from (0x7fffffffecf8) -- of Size = (4) -- vaddr (0x7fffffffecf8) -- paddr (0xc5cf8) 

-- Tick (120291000) -- ISN: (83834) : L from (0x7fffffffecf8) -- of Size = (4) -- vaddr (0x7fffffffecf8) -- paddr (0xc5cf8) 

-- Tick (120292500) -- ISN: (83837) : S -> (0x64) at (0x7fffffffecf8) -- Size = (4) -- vaddr (0x7fffffffecf8) -- paddr (0xc5cf8) 

-- Tick (120293000) -- ISN: (83833) : S -> (0x0) at (0x6bc5cc) -- Size = (4) -- vaddr (0x6bc5cc) -- paddr (0xbc5cc) 

-- Tick (120293000) -- ISN: (83838) : L from (0x7fffffffecf8) -- of Size = (4) -- vaddr (0x7fffffffecf8) -- paddr (0xc5cf8) 

-- Tick (120293000) -- ISN: (83844) : L from (0x7fffffffecf8) -- of Size = (4) -- vaddr (0x7fffffffecf8) -- paddr (0xc5cf8) 

-- Tick (120293000) -- ISN: (83851) : L from (0x7fffffffecf8) -- of Size = (4) -- vaddr (0x7fffffffecf8) -- paddr (0xc5cf8) 

-- Tick (120294500) -- ISN: (83854) : S -> (0x65) at (0x7fffffffecf8) -- Size = (4) -- vaddr (0x7fffffffecf8) -- paddr (0xc5cf8) 

-- Tick (120295000) -- ISN: (83850) : S -> (0x0) at (0x6bc5d0) -- Size = (4) -- vaddr (0x6bc5d0) -- paddr (0xbc5d0) 

-- Tick (120295000) -- ISN: (83855) : L from (0x7fffffffecf8) -- of Size = (4) -- vaddr (0x7fffffffecf8) -- paddr (0xc5cf8) 

-- Tick (120295000) -- ISN: (83861) : L from (0x7fffffffecf8) -- of Size = (4) -- vaddr (0x7fffffffecf8) -- paddr (0xc5cf8) 

-- Tick (120295000) -- ISN: (83868) : L from (0x7fffffffecf8) -- of Size = (4) -- vaddr (0x7fffffffecf8) -- paddr (0xc5cf8) 

-- Sqsh -> ISN (83843)

-- Tick (120301000) -- ISN: (83922) : S -> (0x0) at (0x7fffffffecfc) -- Size = (4) -- vaddr (0x7fffffffecfc) -- paddr (0xc5cfc) 

-- Tick (120301500) -- ISN: (83929) : S -> (0x4d) at (0x7fffffffece8) -- Size = (8) -- vaddr (0x7fffffffece8) -- paddr (0xc5ce8) 

-- Tick (120301500) -- ISN: (83932) : L from (0x7fffffffecfc) -- of Size = (4) -- vaddr (0x7fffffffecfc) -- paddr (0xc5cfc) 

-- Sqsh -> ISN (83925)

-- Tick (120306500) -- ISN: (83959) : L from (0x7fffffffecfc) -- of Size = (4) -- vaddr (0x7fffffffecfc) -- paddr (0xc5cfc) 

-- Tick (120308000) -- ISN: (83968) : S -> (0x72) at (0x7fffffffece8) -- Size = (8) -- vaddr (0x7fffffffece8) -- paddr (0xc5ce8) 

-- Tick (120308000) -- ISN: (83972) : L from (0x6bc7e0) -- of Size = (4) -- vaddr (0x6bc7e0) -- paddr (0xbc7e0) 

-- Sqsh -> ISN (83964)

-- Tick (120313000) -- ISN: (83981) : L from (0x7fffffffecfc) -- of Size = (4) -- vaddr (0x7fffffffecfc) -- paddr (0xc5cfc) 

-- Tick (120313500) -- ISN: (83978) : S -> (0x4d) at (0x7fffffffece8) -- Size = (8) -- vaddr (0x7fffffffece8) -- paddr (0xc5ce8) 

-- Tick (120314000) -- ISN: (83988) : L from (0x7fffffffecfc) -- of Size = (4) -- vaddr (0x7fffffffecfc) -- paddr (0xc5cfc) 

-- Sqsh -> ISN (83980)

-- Tick (120369500) -- ISN: (84008) : S -> (0x20) at (0x7fffffffece0) -- Size = (8) -- vaddr (0x7fffffffece0) -- paddr (0xc5ce0) 

-- Tick (120370500) -- ISN: (84012) : S -> (0x0) at (0x7fffffffecdc) -- Size = (4) -- vaddr (0x7fffffffecdc) -- paddr (0xc5cdc) 

-- Tick (120370500) -- ISN: (84016) : L from (0x7fffffffecdc) -- of Size = (4) -- vaddr (0x7fffffffecdc) -- paddr (0xc5cdc) 

-- Sqsh -> ISN (84015)

-- Tick (120425000) -- ISN: (84025) : L from (0x7fffffffecdc) -- of Size = (4) -- vaddr (0x7fffffffecdc) -- paddr (0xc5cdc) 

-- Tick (120425000) -- ISN: (84031) : L from (0x7fffffffece0) -- of Size = (8) -- vaddr (0x7fffffffece0) -- paddr (0xc5ce0) 

-- Tick (120426000) -- ISN: (84034) : L from (0x7fffffffece8) -- of Size = (8) -- vaddr (0x7fffffffece8) -- paddr (0xc5ce8) 

-- Tick (120427000) -- ISN: (84041) : S -> (0x57) at (0x7fffffffece8) -- Size = (8) -- vaddr (0x7fffffffece8) -- paddr (0xc5ce8) 

-- Tick (120427500) -- ISN: (84037) : L from (0x7fffffffecfc) -- of Size = (4) -- vaddr (0x7fffffffecfc) -- paddr (0xc5cfc) 

-- Tick (120427500) -- ISN: (84044) : L from (0x7fffffffecfc) -- of Size = (4) -- vaddr (0x7fffffffecfc) -- paddr (0xc5cfc) 

-- Tick (120427500) -- ISN: (84048) : L from (0x7fffffffecfc) -- of Size = (4) -- vaddr (0x7fffffffecfc) -- paddr (0xc5cfc) 

-- Sqsh -> ISN (84029)

-- Tick (120433500) -- ISN: (84088) : L from (0x7fffffffecdc) -- of Size = (4) -- vaddr (0x7fffffffecdc) -- paddr (0xc5cdc) 

-- Tick (120434500) -- ISN: (84097) : L from (0x7fffffffecdc) -- of Size = (4) -- vaddr (0x7fffffffecdc) -- paddr (0xc5cdc) 

-- Tick (120434500) -- ISN: (84101) : L from (0x7fffffffecdc) -- of Size = (4) -- vaddr (0x7fffffffecdc) -- paddr (0xc5cdc) 

-- Tick (120435000) -- ISN: (84107) : L from (0x7fffffffece0) -- of Size = (8) -- vaddr (0x7fffffffece0) -- paddr (0xc5ce0) 

-- Tick (120435500) -- ISN: (84110) : L from (0x7fffffffece8) -- of Size = (8) -- vaddr (0x7fffffffece8) -- paddr (0xc5ce8) 

-- Tick (120436000) -- ISN: (84093) : L from (0x6bc5e0) -- of Size = (4) -- vaddr (0x6bc5e0) -- paddr (0xbc5e0) 

-- Tick (120436000) -- ISN: (84117) : S -> (0x57) at (0x7fffffffece8) -- Size = (8) -- vaddr (0x7fffffffece8) -- paddr (0xc5ce8) 

-- Tick (120436500) -- ISN: (84099) : S -> (0x10) at (0x7fffffffecdc) -- Size = (4) -- vaddr (0x7fffffffecdc) -- paddr (0xc5cdc) 

-- Sqsh -> ISN (84119)

-- Tick (120437000) -- ISN: (84113) : L from (0x7fffffffecfc) -- of Size = (4) -- vaddr (0x7fffffffecfc) -- paddr (0xc5cfc) 

-- Sqsh -> ISN (84100)

-- Tick (120437500) -- ISN: (84095) : S -> (0x0) at (0x6bc424) -- Size = (4) -- vaddr (0x6bc424) -- paddr (0xbc424) 

-- Tick (120442000) -- ISN: (84164) : L from (0x7fffffffecdc) -- of Size = (4) -- vaddr (0x7fffffffecdc) -- paddr (0xc5cdc) 

-- Tick (120443000) -- ISN: (84170) : L from (0x7fffffffece0) -- of Size = (8) -- vaddr (0x7fffffffece0) -- paddr (0xc5ce0) 

-- Tick (120443500) -- ISN: (84173) : L from (0x7fffffffece8) -- of Size = (8) -- vaddr (0x7fffffffece8) -- paddr (0xc5ce8) 

-- Sqsh -> ISN (84168)

-- Tick (120448500) -- ISN: (84183) : L from (0x7fffffffecdc) -- of Size = (4) -- vaddr (0x7fffffffecdc) -- paddr (0xc5cdc) 

-- Tick (120450000) -- ISN: (84192) : L from (0x7fffffffecdc) -- of Size = (4) -- vaddr (0x7fffffffecdc) -- paddr (0xc5cdc) 

-- Tick (120450500) -- ISN: (84188) : L from (0x6bc620) -- of Size = (4) -- vaddr (0x6bc620) -- paddr (0xbc620) 

-- Tick (120450500) -- ISN: (84202) : L from (0x7fffffffece0) -- of Size = (8) -- vaddr (0x7fffffffece0) -- paddr (0xc5ce0) 

-- Tick (120451000) -- ISN: (84205) : L from (0x7fffffffece8) -- of Size = (8) -- vaddr (0x7fffffffece8) -- paddr (0xc5ce8) 

-- Tick (120451500) -- ISN: (84194) : S -> (0x20) at (0x7fffffffecdc) -- Size = (4) -- vaddr (0x7fffffffecdc) -- paddr (0xc5cdc) 

-- Tick (120452000) -- ISN: (84196) : L from (0x7fffffffecdc) -- of Size = (4) -- vaddr (0x7fffffffecdc) -- paddr (0xc5cdc) 

-- Tick (120452500) -- ISN: (84208) : L from (0x7fffffffecfc) -- of Size = (4) -- vaddr (0x7fffffffecfc) -- paddr (0xc5cfc) 

-- Tick (120452500) -- ISN: (84212) : S -> (0x57) at (0x7fffffffece8) -- Size = (8) -- vaddr (0x7fffffffece8) -- paddr (0xc5ce8) 

-- Tick (120452500) -- ISN: (84215) : L from (0x7fffffffecfc) -- of Size = (4) -- vaddr (0x7fffffffecfc) -- paddr (0xc5cfc) 

-- Tick (120452500) -- ISN: (84219) : L from (0x7fffffffecfc) -- of Size = (4) -- vaddr (0x7fffffffecfc) -- paddr (0xc5cfc) 

-- Sqsh -> ISN (84214)

-- Sqsh -> ISN (84200)

-- Tick (120460000) -- ISN: (84259) : L from (0x7fffffffecdc) -- of Size = (4) -- vaddr (0x7fffffffecdc) -- paddr (0xc5cdc) 

-- Tick (120461000) -- ISN: (84268) : L from (0x7fffffffecdc) -- of Size = (4) -- vaddr (0x7fffffffecdc) -- paddr (0xc5cdc) 

-- Tick (120461500) -- ISN: (84278) : L from (0x7fffffffece0) -- of Size = (8) -- vaddr (0x7fffffffece0) -- paddr (0xc5ce0) 

-- Tick (120462000) -- ISN: (84264) : L from (0x6bc660) -- of Size = (4) -- vaddr (0x6bc660) -- paddr (0xbc660) 

-- Tick (120462000) -- ISN: (84281) : L from (0x7fffffffece8) -- of Size = (8) -- vaddr (0x7fffffffece8) -- paddr (0xc5ce8) 

-- Tick (120462500) -- ISN: (84270) : S -> (0x30) at (0x7fffffffecdc) -- Size = (4) -- vaddr (0x7fffffffecdc) -- paddr (0xc5cdc) 

-- Tick (120462500) -- ISN: (84288) : S -> (0x57) at (0x7fffffffece8) -- Size = (8) -- vaddr (0x7fffffffece8) -- paddr (0xc5ce8) 

-- Tick (120463000) -- ISN: (84272) : L from (0x7fffffffecdc) -- of Size = (4) -- vaddr (0x7fffffffecdc) -- paddr (0xc5cdc) 

-- Sqsh -> ISN (84290)

-- Tick (120463500) -- ISN: (84284) : L from (0x7fffffffecfc) -- of Size = (4) -- vaddr (0x7fffffffecfc) -- paddr (0xc5cfc) 

-- Sqsh -> ISN (84276)

-- Tick (120471000) -- ISN: (84335) : L from (0x7fffffffecdc) -- of Size = (4) -- vaddr (0x7fffffffecdc) -- paddr (0xc5cdc) 

-- Tick (120472000) -- ISN: (84344) : L from (0x7fffffffecdc) -- of Size = (4) -- vaddr (0x7fffffffecdc) -- paddr (0xc5cdc) 

-- Tick (120472500) -- ISN: (84354) : L from (0x7fffffffece0) -- of Size = (8) -- vaddr (0x7fffffffece0) -- paddr (0xc5ce0) 

-- Tick (120473000) -- ISN: (84340) : L from (0x6bc6a0) -- of Size = (4) -- vaddr (0x6bc6a0) -- paddr (0xbc6a0) 

-- Tick (120473000) -- ISN: (84357) : L from (0x7fffffffece8) -- of Size = (8) -- vaddr (0x7fffffffece8) -- paddr (0xc5ce8) 

-- Tick (120473500) -- ISN: (84346) : S -> (0x40) at (0x7fffffffecdc) -- Size = (4) -- vaddr (0x7fffffffecdc) -- paddr (0xc5cdc) 

-- Tick (120473500) -- ISN: (84364) : S -> (0x57) at (0x7fffffffece8) -- Size = (8) -- vaddr (0x7fffffffece8) -- paddr (0xc5ce8) 

-- Tick (120474000) -- ISN: (84348) : L from (0x7fffffffecdc) -- of Size = (4) -- vaddr (0x7fffffffecdc) -- paddr (0xc5cdc) 

-- Tick (120474500) -- ISN: (84360) : L from (0x7fffffffecfc) -- of Size = (4) -- vaddr (0x7fffffffecfc) -- paddr (0xc5cfc) 

-- Sqsh -> ISN (84352)

-- Tick (120480500) -- ISN: (84367) : L from (0x7fffffffecdc) -- of Size = (4) -- vaddr (0x7fffffffecdc) -- paddr (0xc5cdc) 

-- Tick (120482000) -- ISN: (84376) : L from (0x7fffffffecdc) -- of Size = (4) -- vaddr (0x7fffffffecdc) -- paddr (0xc5cdc) 

-- Tick (120482500) -- ISN: (84372) : L from (0x6bc6e0) -- of Size = (4) -- vaddr (0x6bc6e0) -- paddr (0xbc6e0) 

-- Tick (120483500) -- ISN: (84378) : S -> (0x50) at (0x7fffffffecdc) -- Size = (4) -- vaddr (0x7fffffffecdc) -- paddr (0xc5cdc) 

-- Tick (120483500) -- ISN: (84385) : L from (0x7fffffffecdc) -- of Size = (4) -- vaddr (0x7fffffffecdc) -- paddr (0xc5cdc) 

-- Tick (120484000) -- ISN: (84380) : L from (0x7fffffffecdc) -- of Size = (4) -- vaddr (0x7fffffffecdc) -- paddr (0xc5cdc) 

-- Tick (120485000) -- ISN: (84394) : L from (0x7fffffffecdc) -- of Size = (4) -- vaddr (0x7fffffffecdc) -- paddr (0xc5cdc) 

-- Tick (120485500) -- ISN: (84390) : L from (0x6bc720) -- of Size = (4) -- vaddr (0x6bc720) -- paddr (0xbc720) 

-- Tick (120486500) -- ISN: (84396) : S -> (0x60) at (0x7fffffffecdc) -- Size = (4) -- vaddr (0x7fffffffecdc) -- paddr (0xc5cdc) 

-- Tick (120486500) -- ISN: (84403) : L from (0x7fffffffecdc) -- of Size = (4) -- vaddr (0x7fffffffecdc) -- paddr (0xc5cdc) 

-- Tick (120487000) -- ISN: (84398) : L from (0x7fffffffecdc) -- of Size = (4) -- vaddr (0x7fffffffecdc) -- paddr (0xc5cdc) 

-- Tick (120488000) -- ISN: (84412) : L from (0x7fffffffecdc) -- of Size = (4) -- vaddr (0x7fffffffecdc) -- paddr (0xc5cdc) 

-- Tick (120488500) -- ISN: (84408) : L from (0x6bc760) -- of Size = (4) -- vaddr (0x6bc760) -- paddr (0xbc760) 

-- Tick (120489500) -- ISN: (84414) : S -> (0x70) at (0x7fffffffecdc) -- Size = (4) -- vaddr (0x7fffffffecdc) -- paddr (0xc5cdc) 

-- Tick (120489500) -- ISN: (84421) : L from (0x7fffffffecdc) -- of Size = (4) -- vaddr (0x7fffffffecdc) -- paddr (0xc5cdc) 

-- Tick (120490000) -- ISN: (84416) : L from (0x7fffffffecdc) -- of Size = (4) -- vaddr (0x7fffffffecdc) -- paddr (0xc5cdc) 

-- Tick (120491500) -- ISN: (84426) : L from (0x6bc7a0) -- of Size = (4) -- vaddr (0x6bc7a0) -- paddr (0xbc7a0) 

-- Tick (120492000) -- ISN: (84372) : L from (0x6bc6e0) -- of Size = (4) -- vaddr (0x6bc6e0) -- paddr (0xbc6e0) 

-- Tick (120492000) -- ISN: (84390) : L from (0x6bc720) -- of Size = (4) -- vaddr (0x6bc720) -- paddr (0xbc720) 

-- Tick (120492000) -- ISN: (84408) : L from (0x6bc760) -- of Size = (4) -- vaddr (0x6bc760) -- paddr (0xbc760) 

-- Tick (120507000) -- ISN: (84372) : L from (0x6bc6e0) -- of Size = (4) -- vaddr (0x6bc6e0) -- paddr (0xbc6e0) 

-- Tick (120507000) -- ISN: (84390) : L from (0x6bc720) -- of Size = (4) -- vaddr (0x6bc720) -- paddr (0xbc720) 

-- Tick (120507000) -- ISN: (84408) : L from (0x6bc760) -- of Size = (4) -- vaddr (0x6bc760) -- paddr (0xbc760) 

-- Tick (120507500) -- ISN: (84190) : S -> (0x0) at (0x6bc424) -- Size = (4) -- vaddr (0x6bc424) -- paddr (0xbc424) 

-- Tick (120512000) -- ISN: (84430) : L from (0x7fffffffecdc) -- of Size = (4) -- vaddr (0x7fffffffecdc) -- paddr (0xc5cdc) 

-- Tick (120512500) -- ISN: (84439) : L from (0x7fffffffecdc) -- of Size = (4) -- vaddr (0x7fffffffecdc) -- paddr (0xc5cdc) 

-- Tick (120513000) -- ISN: (84390) : L from (0x6bc720) -- of Size = (4) -- vaddr (0x6bc720) -- paddr (0xbc720) 

-- Tick (120513000) -- ISN: (84408) : L from (0x6bc760) -- of Size = (4) -- vaddr (0x6bc760) -- paddr (0xbc760) 

-- Tick (120513500) -- ISN: (84266) : S -> (0x0) at (0x6bc424) -- Size = (4) -- vaddr (0x6bc424) -- paddr (0xbc424) 

-- Tick (120513500) -- ISN: (84432) : S -> (0x80) at (0x7fffffffecdc) -- Size = (4) -- vaddr (0x7fffffffecdc) -- paddr (0xc5cdc) 

-- Tick (120513500) -- ISN: (84457) : L from (0x7fffffffecdc) -- of Size = (4) -- vaddr (0x7fffffffecdc) -- paddr (0xc5cdc) 

-- Tick (120514000) -- ISN: (84434) : L from (0x7fffffffecdc) -- of Size = (4) -- vaddr (0x7fffffffecdc) -- paddr (0xc5cdc) 

-- Tick (120514000) -- ISN: (84448) : L from (0x7fffffffecdc) -- of Size = (4) -- vaddr (0x7fffffffecdc) -- paddr (0xc5cdc) 

-- Sqsh -> ISN (84438)

-- Tick (120520000) -- ISN: (84491) : L from (0x7fffffffecdc) -- of Size = (4) -- vaddr (0x7fffffffecdc) -- paddr (0xc5cdc) 

-- Tick (120521000) -- ISN: (84500) : L from (0x7fffffffecdc) -- of Size = (4) -- vaddr (0x7fffffffecdc) -- paddr (0xc5cdc) 

-- Tick (120522000) -- ISN: (84496) : L from (0x6bc7e0) -- of Size = (4) -- vaddr (0x6bc7e0) -- paddr (0xbc7e0) 

-- Tick (120522500) -- ISN: (84502) : S -> (0x90) at (0x7fffffffecdc) -- Size = (4) -- vaddr (0x7fffffffecdc) -- paddr (0xc5cdc) 

-- Tick (120523000) -- ISN: (84504) : L from (0x7fffffffecdc) -- of Size = (4) -- vaddr (0x7fffffffecdc) -- paddr (0xc5cdc) 

-- Tick (120523000) -- ISN: (84509) : L from (0x7fffffffecdc) -- of Size = (4) -- vaddr (0x7fffffffecdc) -- paddr (0xc5cdc) 

-- Tick (120523000) -- ISN: (84518) : L from (0x7fffffffecdc) -- of Size = (4) -- vaddr (0x7fffffffecdc) -- paddr (0xc5cdc) 

-- Tick (120524000) -- ISN: (84408) : L from (0x6bc760) -- of Size = (4) -- vaddr (0x6bc760) -- paddr (0xbc760) 

-- Tick (120524000) -- ISN: (84496) : L from (0x6bc7e0) -- of Size = (4) -- vaddr (0x6bc7e0) -- paddr (0xbc7e0) 

-- Tick (120524500) -- ISN: (84342) : S -> (0x0) at (0x6bc424) -- Size = (4) -- vaddr (0x6bc424) -- paddr (0xbc424) 

-- Tick (120524500) -- ISN: (84520) : S -> (0xa0) at (0x7fffffffecdc) -- Size = (4) -- vaddr (0x7fffffffecdc) -- paddr (0xc5cdc) 

-- Tick (120525000) -- ISN: (84514) : L from (0x6bc820) -- of Size = (4) -- vaddr (0x6bc820) -- paddr (0xbc820) 

-- Tick (120525000) -- ISN: (84522) : L from (0x7fffffffecdc) -- of Size = (4) -- vaddr (0x7fffffffecdc) -- paddr (0xc5cdc) 

-- Tick (120525000) -- ISN: (84527) : L from (0x7fffffffecdc) -- of Size = (4) -- vaddr (0x7fffffffecdc) -- paddr (0xc5cdc) 

-- Tick (120526000) -- ISN: (84536) : L from (0x7fffffffecdc) -- of Size = (4) -- vaddr (0x7fffffffecdc) -- paddr (0xc5cdc) 

-- Tick (120527000) -- ISN: (84532) : L from (0x6bc860) -- of Size = (4) -- vaddr (0x6bc860) -- paddr (0xbc860) 

[...]

-- Tick (174684000) -- ISN: (157273) : L from (0x6bcaa0) -- of Size = (4) -- vaddr (0x6bcaa0) -- paddr (0xbcaa0) 

-- Tick (174684500) -- ISN: (157185) : S -> (0x0) at (0x6bc424) -- Size = (4) -- vaddr (0x6bc424) -- paddr (0xbc424) 

-- Tick (174694000) -- ISN: (157255) : L from (0x6bca60) -- of Size = (4) -- vaddr (0x6bca60) -- paddr (0xbca60) 

-- Tick (174694000) -- ISN: (157273) : L from (0x6bcaa0) -- of Size = (4) -- vaddr (0x6bcaa0) -- paddr (0xbcaa0) 

-- Tick (174694500) -- ISN: (157277) : L from (0x7fffffffecdc) -- of Size = (4) -- vaddr (0x7fffffffecdc) -- paddr (0xc5cdc) 

-- Tick (174699000) -- ISN: (157273) : L from (0x6bcaa0) -- of Size = (4) -- vaddr (0x6bcaa0) -- paddr (0xbcaa0) 

-- Tick (174699500) -- ISN: (157203) : S -> (0x0) at (0x6bc424) -- Size = (4) -- vaddr (0x6bc424) -- paddr (0xbc424) 

-- Tick (174701500) -- ISN: (157279) : S -> (0x40) at (0x7fffffffecdc) -- Size = (4) -- vaddr (0x7fffffffecdc) -- paddr (0xc5cdc) 

-- Tick (174702000) -- ISN: (157281) : L from (0x7fffffffecdc) -- of Size = (4) -- vaddr (0x7fffffffecdc) -- paddr (0xc5cdc) 

-- Tick (174702000) -- ISN: (157286) : L from (0x7fffffffecdc) -- of Size = (4) -- vaddr (0x7fffffffecdc) -- paddr (0xc5cdc) 

-- Tick (174704000) -- ISN: (157291) : L from (0x6bcae0) -- of Size = (4) -- vaddr (0x6bcae0) -- paddr (0xbcae0) 

-- Tick (174729000) -- ISN: (157291) : L from (0x6bcae0) -- of Size = (4) -- vaddr (0x6bcae0) -- paddr (0xbcae0) 

-- Tick (174729500) -- ISN: (157221) : S -> (0x0) at (0x6bc424) -- Size = (4) -- vaddr (0x6bc424) -- paddr (0xbc424) 

-- Tick (174731500) -- ISN: (157295) : L from (0x7fffffffecdc) -- of Size = (4) -- vaddr (0x7fffffffecdc) -- paddr (0xc5cdc) 

-- Tick (174735500) -- ISN: (157239) : S -> (0x0) at (0x6bc424) -- Size = (4) -- vaddr (0x6bc424) -- paddr (0xbc424) 

-- Tick (174737500) -- ISN: (157297) : S -> (0x50) at (0x7fffffffecdc) -- Size = (4) -- vaddr (0x7fffffffecdc) -- paddr (0xc5cdc) 

-- Tick (174738000) -- ISN: (157299) : L from (0x7fffffffecdc) -- of Size = (4) -- vaddr (0x7fffffffecdc) -- paddr (0xc5cdc) 

-- Tick (174738500) -- ISN: (157304) : L from (0x7fffffffecdc) -- of Size = (4) -- vaddr (0x7fffffffecdc) -- paddr (0xc5cdc) 

-- Tick (174739000) -- ISN: (157313) : L from (0x7fffffffecdc) -- of Size = (4) -- vaddr (0x7fffffffecdc) -- paddr (0xc5cdc) 

-- Tick (174740500) -- ISN: (157309) : L from (0x6bcb20) -- of Size = (4) -- vaddr (0x6bcb20) -- paddr (0xbcb20) 

-- Tick (174740500) -- ISN: (157315) : S -> (0x60) at (0x7fffffffecdc) -- Size = (4) -- vaddr (0x7fffffffecdc) -- paddr (0xc5cdc) 

-- Tick (174741000) -- ISN: (157317) : L from (0x7fffffffecdc) -- of Size = (4) -- vaddr (0x7fffffffecdc) -- paddr (0xc5cdc) 

-- Tick (174741000) -- ISN: (157322) : L from (0x7fffffffecdc) -- of Size = (4) -- vaddr (0x7fffffffecdc) -- paddr (0xc5cdc) 

-- Tick (174741000) -- ISN: (157331) : L from (0x7fffffffecdc) -- of Size = (4) -- vaddr (0x7fffffffecdc) -- paddr (0xc5cdc) 

-- Tick (174742500) -- ISN: (157333) : S -> (0x70) at (0x7fffffffecdc) -- Size = (4) -- vaddr (0x7fffffffecdc) -- paddr (0xc5cdc) 

-- Tick (174743000) -- ISN: (157327) : L from (0x6bcb60) -- of Size = (4) -- vaddr (0x6bcb60) -- paddr (0xbcb60) 

-- Tick (174743000) -- ISN: (157335) : L from (0x7fffffffecdc) -- of Size = (4) -- vaddr (0x7fffffffecdc) -- paddr (0xc5cdc) 

-- Tick (174743000) -- ISN: (157340) : L from (0x7fffffffecdc) -- of Size = (4) -- vaddr (0x7fffffffecdc) -- paddr (0xc5cdc) 

-- Tick (174743000) -- ISN: (157349) : L from (0x7fffffffecdc) -- of Size = (4) -- vaddr (0x7fffffffecdc) -- paddr (0xc5cdc) 

-- Tick (174745000) -- ISN: (157327) : L from (0x6bcb60) -- of Size = (4) -- vaddr (0x6bcb60) -- paddr (0xbcb60) 

-- Tick (174745000) -- ISN: (157345) : L from (0x6bcba0) -- of Size = (4) -- vaddr (0x6bcba0) -- paddr (0xbcba0) 

-- Tick (174745500) -- ISN: (157257) : S -> (0x0) at (0x6bc424) -- Size = (4) -- vaddr (0x6bc424) -- paddr (0xbc424) 

-- Tick (174746000) -- ISN: (157351) : S -> (0x80) at (0x7fffffffecdc) -- Size = (4) -- vaddr (0x7fffffffecdc) -- paddr (0xc5cdc) 

-- Tick (174746500) -- ISN: (157353) : L from (0x7fffffffecdc) -- of Size = (4) -- vaddr (0x7fffffffecdc) -- paddr (0xc5cdc) 

-- Tick (174746500) -- ISN: (157358) : L from (0x7fffffffecdc) -- of Size = (4) -- vaddr (0x7fffffffecdc) -- paddr (0xc5cdc) 

-- Tick (174748500) -- ISN: (157363) : L from (0x6bcbe0) -- of Size = (4) -- vaddr (0x6bcbe0) -- paddr (0xbcbe0) 

-- Tick (174750000) -- ISN: (157345) : L from (0x6bcba0) -- of Size = (4) -- vaddr (0x6bcba0) -- paddr (0xbcba0) 

-- Tick (174750000) -- ISN: (157363) : L from (0x6bcbe0) -- of Size = (4) -- vaddr (0x6bcbe0) -- paddr (0xbcbe0) 

-- Tick (174750500) -- ISN: (157275) : S -> (0x0) at (0x6bc424) -- Size = (4) -- vaddr (0x6bc424) -- paddr (0xbc424) 

-- Tick (174752500) -- ISN: (157367) : L from (0x7fffffffecdc) -- of Size = (4) -- vaddr (0x7fffffffecdc) -- paddr (0xc5cdc) 

-- Tick (174780000) -- ISN: (157363) : L from (0x6bcbe0) -- of Size = (4) -- vaddr (0x6bcbe0) -- paddr (0xbcbe0) 

-- Tick (174780500) -- ISN: (157293) : S -> (0x0) at (0x6bc424) -- Size = (4) -- vaddr (0x6bc424) -- paddr (0xbc424) 

-- Tick (174782500) -- ISN: (157369) : S -> (0x90) at (0x7fffffffecdc) -- Size = (4) -- vaddr (0x7fffffffecdc) -- paddr (0xc5cdc) 

-- Tick (174783000) -- ISN: (157371) : L from (0x7fffffffecdc) -- of Size = (4) -- vaddr (0x7fffffffecdc) -- paddr (0xc5cdc) 

-- Tick (174783500) -- ISN: (157376) : L from (0x7fffffffecdc) -- of Size = (4) -- vaddr (0x7fffffffecdc) -- paddr (0xc5cdc) 

-- Tick (174785500) -- ISN: (157381) : L from (0x6bcc20) -- of Size = (4) -- vaddr (0x6bcc20) -- paddr (0xbcc20) 

-- Tick (174792000) -- ISN: (157381) : L from (0x6bcc20) -- of Size = (4) -- vaddr (0x6bcc20) -- paddr (0xbcc20) 

-- Tick (174792500) -- ISN: (157311) : S -> (0x0) at (0x6bc424) -- Size = (4) -- vaddr (0x6bc424) -- paddr (0xbc424) 

-- Tick (174794500) -- ISN: (157385) : L from (0x7fffffffecdc) -- of Size = (4) -- vaddr (0x7fffffffecdc) -- paddr (0xc5cdc) 

-- Tick (174797500) -- ISN: (157329) : S -> (0x0) at (0x6bc424) -- Size = (4) -- vaddr (0x6bc424) -- paddr (0xbc424) 

-- Tick (174799500) -- ISN: (157387) : S -> (0xa0) at (0x7fffffffecdc) -- Size = (4) -- vaddr (0x7fffffffecdc) -- paddr (0xc5cdc) 

-- Tick (174800000) -- ISN: (157389) : L from (0x7fffffffecdc) -- of Size = (4) -- vaddr (0x7fffffffecdc) -- paddr (0xc5cdc) 

-- Tick (174800000) -- ISN: (157394) : L from (0x7fffffffecdc) -- of Size = (4) -- vaddr (0x7fffffffecdc) -- paddr (0xc5cdc) 

-- Tick (174801000) -- ISN: (157403) : L from (0x7fffffffecdc) -- of Size = (4) -- vaddr (0x7fffffffecdc) -- paddr (0xc5cdc) 

-- Tick (174802000) -- ISN: (157399) : L from (0x6bcc60) -- of Size = (4) -- vaddr (0x6bcc60) -- paddr (0xbcc60) 

-- Tick (174802500) -- ISN: (157347) : S -> (0x0) at (0x6bc424) -- Size = (4) -- vaddr (0x6bc424) -- paddr (0xbc424) 

-- Tick (174802500) -- ISN: (157405) : S -> (0xb0) at (0x7fffffffecdc) -- Size = (4) -- vaddr (0x7fffffffecdc) -- paddr (0xc5cdc) 

-- Tick (174803000) -- ISN: (157407) : L from (0x7fffffffecdc) -- of Size = (4) -- vaddr (0x7fffffffecdc) -- paddr (0xc5cdc) 

-- Tick (174803000) -- ISN: (157412) : L from (0x7fffffffecdc) -- of Size = (4) -- vaddr (0x7fffffffecdc) -- paddr (0xc5cdc) 

-- Tick (174803000) -- ISN: (157421) : L from (0x7fffffffecdc) -- of Size = (4) -- vaddr (0x7fffffffecdc) -- paddr (0xc5cdc) 

-- Tick (174804500) -- ISN: (157423) : S -> (0xc0) at (0x7fffffffecdc) -- Size = (4) -- vaddr (0x7fffffffecdc) -- paddr (0xc5cdc) 

-- Tick (174805000) -- ISN: (157417) : L from (0x6bcca0) -- of Size = (4) -- vaddr (0x6bcca0) -- paddr (0xbcca0) 

-- Tick (174805000) -- ISN: (157425) : L from (0x7fffffffecdc) -- of Size = (4) -- vaddr (0x7fffffffecdc) -- paddr (0xc5cdc) 

-- Tick (174805000) -- ISN: (157430) : L from (0x7fffffffecdc) -- of Size = (4) -- vaddr (0x7fffffffecdc) -- paddr (0xc5cdc) 

-- Tick (174805000) -- ISN: (157439) : L from (0x7fffffffecdc) -- of Size = (4) -- vaddr (0x7fffffffecdc) -- paddr (0xc5cdc) 

-- Tick (174806500) -- ISN: (157441) : S -> (0xd0) at (0x7fffffffecdc) -- Size = (4) -- vaddr (0x7fffffffecdc) -- paddr (0xc5cdc) 

-- Tick (174807000) -- ISN: (157435) : L from (0x6bcce0) -- of Size = (4) -- vaddr (0x6bcce0) -- paddr (0xbcce0) 

-- Tick (174807000) -- ISN: (157443) : L from (0x7fffffffecdc) -- of Size = (4) -- vaddr (0x7fffffffecdc) -- paddr (0xc5cdc) 

-- Tick (174807000) -- ISN: (157448) : L from (0x7fffffffecdc) -- of Size = (4) -- vaddr (0x7fffffffecdc) -- paddr (0xc5cdc) 

-- Tick (174807000) -- ISN: (157457) : L from (0x7fffffffecdc) -- of Size = (4) -- vaddr (0x7fffffffecdc) -- paddr (0xc5cdc) 

-- Tick (174808500) -- ISN: (157459) : S -> (0xe0) at (0x7fffffffecdc) -- Size = (4) -- vaddr (0x7fffffffecdc) -- paddr (0xc5cdc) 

-- Tick (174809000) -- ISN: (157453) : L from (0x6bcd20) -- of Size = (4) -- vaddr (0x6bcd20) -- paddr (0xbcd20) 

-- Tick (174809000) -- ISN: (157461) : L from (0x7fffffffecdc) -- of Size = (4) -- vaddr (0x7fffffffecdc) -- paddr (0xc5cdc) 

-- Tick (174809000) -- ISN: (157466) : L from (0x7fffffffecdc) -- of Size = (4) -- vaddr (0x7fffffffecdc) -- paddr (0xc5cdc) 

-- Tick (174811000) -- ISN: (157471) : L from (0x6bcd60) -- of Size = (4) -- vaddr (0x6bcd60) -- paddr (0xbcd60) 

-- Tick (174845000) -- ISN: (157435) : L from (0x6bcce0) -- of Size = (4) -- vaddr (0x6bcce0) -- paddr (0xbcce0) 

-- Tick (174845000) -- ISN: (157453) : L from (0x6bcd20) -- of Size = (4) -- vaddr (0x6bcd20) -- paddr (0xbcd20) 

-- Tick (174845000) -- ISN: (157471) : L from (0x6bcd60) -- of Size = (4) -- vaddr (0x6bcd60) -- paddr (0xbcd60) 

-- Tick (174845500) -- ISN: (157365) : S -> (0x0) at (0x6bc424) -- Size = (4) -- vaddr (0x6bc424) -- paddr (0xbc424) 

-- Tick (174848500) -- ISN: (157475) : L from (0x7fffffffecdc) -- of Size = (4) -- vaddr (0x7fffffffecdc) -- paddr (0xc5cdc) 

-- Tick (174850000) -- ISN: (157453) : L from (0x6bcd20) -- of Size = (4) -- vaddr (0x6bcd20) -- paddr (0xbcd20) 

-- Tick (174850000) -- ISN: (157471) : L from (0x6bcd60) -- of Size = (4) -- vaddr (0x6bcd60) -- paddr (0xbcd60) 

-- Tick (174850500) -- ISN: (157383) : S -> (0x0) at (0x6bc424) -- Size = (4) -- vaddr (0x6bc424) -- paddr (0xbc424) 

-- Tick (174855000) -- ISN: (157453) : L from (0x6bcd20) -- of Size = (4) -- vaddr (0x6bcd20) -- paddr (0xbcd20) 

-- Tick (174855000) -- ISN: (157471) : L from (0x6bcd60) -- of Size = (4) -- vaddr (0x6bcd60) -- paddr (0xbcd60) 

-- Tick (174855500) -- ISN: (157401) : S -> (0x0) at (0x6bc424) -- Size = (4) -- vaddr (0x6bc424) -- paddr (0xbc424) 

-- Tick (174860000) -- ISN: (157471) : L from (0x6bcd60) -- of Size = (4) -- vaddr (0x6bcd60) -- paddr (0xbcd60) 

-- Tick (174860500) -- ISN: (157419) : S -> (0x0) at (0x6bc424) -- Size = (4) -- vaddr (0x6bc424) -- paddr (0xbc424) 

-- Tick (174878000) -- ISN: (157477) : S -> (0xf0) at (0x7fffffffecdc) -- Size = (4) -- vaddr (0x7fffffffecdc) -- paddr (0xc5cdc) 

-- Tick (174878500) -- ISN: (157479) : L from (0x7fffffffecdc) -- of Size = (4) -- vaddr (0x7fffffffecdc) -- paddr (0xc5cdc) 

-- Tick (174878500) -- ISN: (157484) : L from (0x7fffffffecdc) -- of Size = (4) -- vaddr (0x7fffffffecdc) -- paddr (0xc5cdc) 

-- Tick (174879500) -- ISN: (157493) : L from (0x7fffffffecdc) -- of Size = (4) -- vaddr (0x7fffffffecdc) -- paddr (0xc5cdc) 

-- Tick (174880500) -- ISN: (157489) : L from (0x6bcda0) -- of Size = (4) -- vaddr (0x6bcda0) -- paddr (0xbcda0) 

-- Tick (174881000) -- ISN: (157495) : S -> (0x0) at (0x7fffffffecdc) -- Size = (4) -- vaddr (0x7fffffffecdc) -- paddr (0xc5cdc) 

-- Tick (174881500) -- ISN: (157497) : L from (0x7fffffffecdc) -- of Size = (4) -- vaddr (0x7fffffffecdc) -- paddr (0xc5cdc) 

-- Tick (174881500) -- ISN: (157502) : L from (0x7fffffffecdc) -- of Size = (4) -- vaddr (0x7fffffffecdc) -- paddr (0xc5cdc) 

-- Tick (174881500) -- ISN: (157511) : L from (0x7fffffffecdc) -- of Size = (4) -- vaddr (0x7fffffffecdc) -- paddr (0xc5cdc) 

-- Tick (174883000) -- ISN: (157513) : S -> (0x10) at (0x7fffffffecdc) -- Size = (4) -- vaddr (0x7fffffffecdc) -- paddr (0xc5cdc) 

-- Tick (174883500) -- ISN: (157507) : L from (0x6bcde0) -- of Size = (4) -- vaddr (0x6bcde0) -- paddr (0xbcde0) 

-- Tick (174883500) -- ISN: (157515) : L from (0x7fffffffecdc) -- of Size = (4) -- vaddr (0x7fffffffecdc) -- paddr (0xc5cdc) 

-- Tick (174883500) -- ISN: (157520) : L from (0x7fffffffecdc) -- of Size = (4) -- vaddr (0x7fffffffecdc) -- paddr (0xc5cdc) 

-- Tick (174883500) -- ISN: (157529) : L from (0x7fffffffecdc) -- of Size = (4) -- vaddr (0x7fffffffecdc) -- paddr (0xc5cdc) 

-- Sqsh -> ISN (157501)

-- Tick (174888000) -- ISN: (157565) : L from (0x7fffffffece0) -- of Size = (8) -- vaddr (0x7fffffffece0) -- paddr (0xc5ce0) 

-- Tick (174888500) -- ISN: (157568) : L from (0x7fffffffece8) -- of Size = (8) -- vaddr (0x7fffffffece8) -- paddr (0xc5ce8) 

-- Tick (174889500) -- ISN: (157572) : L from (0x6bc7e0) -- of Size = (4) -- vaddr (0x6bc7e0) -- paddr (0xbc7e0) 

-- Tick (174890500) -- ISN: (157576) : L from (0x6bc820) -- of Size = (4) -- vaddr (0x6bc820) -- paddr (0xbc820) 

-- Tick (174890500) -- ISN: (157582) : S -> (0x94) at (0x7fffffffece8) -- Size = (8) -- vaddr (0x7fffffffece8) -- paddr (0xc5ce8) 

-- Sqsh -> ISN (157584)

-- Tick (174896000) -- ISN: (157565) : L from (0x7fffffffece0) -- of Size = (8) -- vaddr (0x7fffffffece0) -- paddr (0xc5ce0) 

-- Tick (174896000) -- ISN: (157568) : L from (0x7fffffffece8) -- of Size = (8) -- vaddr (0x7fffffffece8) -- paddr (0xc5ce8) 

-- Tick (174896000) -- ISN: (157572) : L from (0x6bc7e0) -- of Size = (4) -- vaddr (0x6bc7e0) -- paddr (0xbc7e0) 

-- Tick (174896000) -- ISN: (157576) : L from (0x6bc820) -- of Size = (4) -- vaddr (0x6bc820) -- paddr (0xbc820) 

-- Tick (174896500) -- ISN: (157437) : S -> (0x0) at (0x6bc424) -- Size = (4) -- vaddr (0x6bc424) -- paddr (0xbc424) 

-- Tick (174906000) -- ISN: (157568) : L from (0x7fffffffece8) -- of Size = (8) -- vaddr (0x7fffffffece8) -- paddr (0xc5ce8) 

-- Tick (174906000) -- ISN: (157572) : L from (0x6bc7e0) -- of Size = (4) -- vaddr (0x6bc7e0) -- paddr (0xbc7e0) 

-- Tick (174906000) -- ISN: (157576) : L from (0x6bc820) -- of Size = (4) -- vaddr (0x6bc820) -- paddr (0xbc820) 

-- Tick (174906500) -- ISN: (157455) : S -> (0x0) at (0x6bc424) -- Size = (4) -- vaddr (0x6bc424) -- paddr (0xbc424) 

-- Tick (174911000) -- ISN: (157576) : L from (0x6bc820) -- of Size = (4) -- vaddr (0x6bc820) -- paddr (0xbc820) 

-- Tick (174911500) -- ISN: (157473) : S -> (0x0) at (0x6bc424) -- Size = (4) -- vaddr (0x6bc424) -- paddr (0xbc424) 

-- Tick (174923000) -- ISN: (157633) : S -> (0x20) at (0x7fffffffece0) -- Size = (8) -- vaddr (0x7fffffffece0) -- paddr (0xc5ce0) 

-- Tick (174928000) -- ISN: (157636) : S -> (0x69) at (0x7fffffffecdc) -- Size = (4) -- vaddr (0x7fffffffecdc) -- paddr (0xc5cdc) 

-- Tick (174928500) -- ISN: (157638) : L from (0x6b90f0) -- of Size = (4) -- vaddr (0x6b90f0) -- paddr (0xb90f0) 

-- Tick (174928500) -- ISN: (157639) : L from (0x7fffffffecdc) -- of Size = (4) -- vaddr (0x7fffffffecdc) -- paddr (0xc5cdc) 

-- Tick (174928500) -- ISN: (157644) : L from (0x7fffffffecdc) -- of Size = (4) -- vaddr (0x7fffffffecdc) -- paddr (0xc5cdc) 

-- Tick (174930500) -- ISN: (157649) : L from (0x6bc5e4) -- of Size = (4) -- vaddr (0x6bc5e4) -- paddr (0xbc5e4) 

-- Tick (174931000) -- ISN: (157661) : L from (0x7fffffffece0) -- of Size = (8) -- vaddr (0x7fffffffece0) -- paddr (0xc5ce0) 

-- Tick (174931500) -- ISN: (157664) : L from (0x7fffffffece8) -- of Size = (8) -- vaddr (0x7fffffffece8) -- paddr (0xc5ce8) 

-- Tick (174932000) -- ISN: (157649) : L from (0x6bc5e4) -- of Size = (4) -- vaddr (0x6bc5e4) -- paddr (0xbc5e4) 

-- Tick (174932000) -- ISN: (157670) : S -> (0x9e) at (0x7fffffffece8) -- Size = (8) -- vaddr (0x7fffffffece8) -- paddr (0xc5ce8) 

-- Tick (174932500) -- ISN: (157491) : S -> (0x0) at (0x6bc424) -- Size = (4) -- vaddr (0x6bc424) -- paddr (0xbc424) 

-- Tick (174932500) -- ISN: (157676) : S -> (0xa8) at (0x7fffffffece0) -- Size = (8) -- vaddr (0x7fffffffece0) -- paddr (0xc5ce0) 

-- Sqsh -> ISN (157672)

-- Tick (174937000) -- ISN: (157731) : S -> (0x20) at (0x7fffffffece0) -- Size = (8) -- vaddr (0x7fffffffece0) -- paddr (0xc5ce0) 

-- Tick (174938000) -- ISN: (157735) : S -> (0x0) at (0x7fffffffecdc) -- Size = (4) -- vaddr (0x7fffffffecdc) -- paddr (0xc5cdc) 

-- Tick (174955000) -- ISN: (157737) : S -> (0x1) at (0x7fffffffecdc) -- Size = (4) -- vaddr (0x7fffffffecdc) -- paddr (0xc5cdc) 

-- Tick (174956000) -- ISN: (157739) : S -> (0x2) at (0x7fffffffecdc) -- Size = (4) -- vaddr (0x7fffffffecdc) -- paddr (0xc5cdc) 

-- Tick (174958500) -- ISN: (157741) : S -> (0x3) at (0x7fffffffecdc) -- Size = (4) -- vaddr (0x7fffffffecdc) -- paddr (0xc5cdc) 

-- Tick (174959500) -- ISN: (157574) : S -> (0x0) at (0x6bc424) -- Size = (4) -- vaddr (0x6bc424) -- paddr (0xbc424) 

-- Tick (174959500) -- ISN: (157743) : S -> (0x4) at (0x7fffffffecdc) -- Size = (4) -- vaddr (0x7fffffffecdc) -- paddr (0xc5cdc) 

-- Tick (174960000) -- ISN: (157745) : S -> (0x5) at (0x7fffffffecdc) -- Size = (4) -- vaddr (0x7fffffffecdc) -- paddr (0xc5cdc) 

-- Tick (174964500) -- ISN: (157578) : S -> (0x0) at (0x6bc424) -- Size = (4) -- vaddr (0x6bc424) -- paddr (0xbc424) 

-- Sqsh -> ISN (157643)

-- Tick (174988500) -- ISN: (157747) : L from (0x7fffffffece0) -- of Size = (8) -- vaddr (0x7fffffffece0) -- paddr (0xc5ce0) 

-- Tick (174989000) -- ISN: (157750) : L from (0x7fffffffece8) -- of Size = (8) -- va
Initial tick : 350095
Tick after a3[129] : 369280
Tick after a3[145] : 383460
Time Taken = 14180

ddr (0x7fffffffece8) -- paddr (0xc5ce8) 

-- Tick (174990000) -- ISN: (157756) : S -> (0x9e) at (0x7fffffffece8) -- Size = (8) -- vaddr (0x7fffffffece8) -- paddr (0xc5ce8) 

-- Tick (174990500) -- ISN: (157762) : S -> (0xa8) at (0x7fffffffece0) -- Size = (8) -- vaddr (0x7fffffffece0) -- paddr (0xc5ce0) 

-- Sqsh -> ISN (157758)

-- Tick (174995000) -- ISN: (157825) : S -> (0x20) at (0x7fffffffece0) -- Size = (8) -- vaddr (0x7fffffffece0) -- paddr (0xc5ce0) 

-- Tick (174996000) -- ISN: (157829) : S -> (0x0) at (0x7fffffffecdc) -- Size = (4) -- vaddr (0x7fffffffecdc) -- paddr (0xc5cdc) 

-- Tick (174996000) -- ISN: (157831) : S -> (0x1) at (0x7fffffffecdc) -- Size = (4) -- vaddr (0x7fffffffecdc) -- paddr (0xc5cdc) 

-- Tick (174996000) -- ISN: (157833) : S -> (0x2) at (0x7fffffffecdc) -- Size = (4) -- vaddr (0x7fffffffecdc) -- paddr (0xc5cdc) 

-- Tick (174996000) -- ISN: (157835) : S -> (0x3) at (0x7fffffffecdc) -- Size = (4) -- vaddr (0x7fffffffecdc) -- paddr (0xc5cdc) 

-- Tick (174996500) -- ISN: (157837) : S -> (0x4) at (0x7fffffffecdc) -- Size = (4) -- vaddr (0x7fffffffecdc) -- paddr (0xc5cdc) 

-- Tick (174996500) -- ISN: (157839) : S -> (0x5) at (0x7fffffffecdc) -- Size = (4) -- vaddr (0x7fffffffecdc) -- paddr (0xc5cdc) 

-- Tick (174997000) -- ISN: (157841) : S -> (0x6) at (0x7fffffffecdc) -- Size = (4) -- vaddr (0x7fffffffecdc) -- paddr (0xc5cdc) 

-- Tick (174997000) -- ISN: (157843) : S -> (0x7) at (0x7fffffffecdc) -- Size = (4) -- vaddr (0x7fffffffecdc) -- paddr (0xc5cdc) 

-- Tick (174997000) -- ISN: (157845) : S -> (0x8) at (0x7fffffffecdc) -- Size = (4) -- vaddr (0x7fffffffecdc) -- paddr (0xc5cdc) 

-- Tick (174997000) -- ISN: (157847) : S -> (0x9) at (0x7fffffffecdc) -- Size = (4) -- vaddr (0x7fffffffecdc) -- paddr (0xc5cdc) 

-- Tick (174997500) -- ISN: (157849) : L from (0x7fffffffece0) -- of Size = (8) -- vaddr (0x7fffffffece0) -- paddr (0xc5ce0) 

-- Tick (174997500) -- ISN: (157852) : L from (0x7fffffffece8) -- of Size = (8) -- vaddr (0x7fffffffece8) -- paddr (0xc5ce8) 

-- Tick (174998500) -- ISN: (157858) : S -> (0xa8) at (0x7fffffffece8) -- Size = (8) -- vaddr (0x7fffffffece8) -- paddr (0xc5ce8) 

-- Sqsh -> ISN (157860)

-- Tick (175003500) -- ISN: (157898) : L from (0x7fffffffece8) -- of Size = (8) -- vaddr (0x7fffffffece8) -- paddr (0xc5ce8) 

HERE 2 : enable_memreq_tracing = 0
Exiting @ tick 209273500 because exiting with last active thread context
