gem5 Simulator System.  http://gem5.org
gem5 is copyrighted software; use the --copyright option for details.

gem5 compiled Mar 24 2020 16:53:31
gem5 started Mar 24 2020 17:34:11
gem5 executing on tarund-desk, pid 10641
command line: build/X86/gem5.opt configs/example/se.py --cmd=./tests/my_progs/spectre_test_3_clean --cpu-type=DerivO3CPU --caches --mem-size=4GB --l1d_size=1kB --l1i_size=1kB --l1d_assoc=1 --l1i_assoc=1 --cacheline_size=64

Global frequency set at 1000000000000 ticks per second
**** REAL SIMULATION ****

Address of a1_len = 0x6b90f0 

Address of i = 0x7fffffffed00 

Address of j = 0x7fffffffed04 

Address of x = 0x6bc3a0 

Address of y = 0x6bc428 

Address of z = 0x6bc424 

Address of array1 = 0x6bc440 

Address of array2 = 0x6bc3c0 

Address of array3 = 0x6bc5e0 
HERE 1 : enable_memreq_tracing = 1
-- Tick (139553000) -- ISN: (85115) : S -> (0xd4) at (0x7fffffffecf8) -- Size = (8) -- vaddr (0x7fffffffecf8) -- paddr (0xc5cf8) 

-- Tick (139553000) -- ISN: (85126) : L from (0x7fffffffed00) -- of Size = (4) -- vaddr (0x7fffffffed00) -- paddr (0xc5d00) 

-- ReadReq [c5d00:c5d03] Miss --  Latency: 502 

-- Tick (139553500) -- ISN: (85120) : S -> (0x1) at (0x6bc5e4) -- Size = (4) -- vaddr (0x6bc5e4) -- paddr (0xbc5e4) 

-- Tick (139553500) -- ISN: (85122) : S -> (0x0) at (0x7fffffffed00) -- Size = (4) -- vaddr (0x7fffffffed00) -- paddr (0xc5d00) 

-- Sqsh -> ISN (85117)

-- ReadReq [dc0:dff] IF Hit -- Blk --state: 7 (E) valid: 1 writable: 1 readable: 1 dirty: 0 | tag: 0x3 set: 0x7 way: 0 Latency: 2 

-- ReadReq [cc0:cff] IF Hit -- Blk --state: 7 (E) valid: 1 writable: 1 readable: 1 dirty: 0 | tag: 0x3 set: 0x3 way: 0 Latency: 2 

-- WriteReq [c5cf8:c5cff] Hit -- Blk --state: f (M) valid: 1 writable: 1 readable: 1 dirty: 1 | tag: 0x317 set: 0x3 way: 0 Latency: 2 

-- ReadReq [d00:d3f] IF Hit -- Blk --state: 7 (E) valid: 1 writable: 1 readable: 1 dirty: 0 | tag: 0x3 set: 0x4 way: 0 Latency: 2 

-- Tick (139558000) -- ISN: (85164) : L from (0x7fffffffecf8) -- of Size = (8) -- vaddr (0x7fffffffecf8) -- paddr (0xc5cf8) 

-- ReadReq [c5cf8:c5cff] Hit -- Blk --state: f (M) valid: 1 writable: 1 readable: 1 dirty: 1 | tag: 0x317 set: 0x3 way: 0 Latency: 2 

-- Tick (139559500) -- ISN: (85169) : S -> (0x1) at (0x6bc5e4) -- Size = (4) -- vaddr (0x6bc5e4) -- paddr (0xbc5e4) 

-- Tick (139559500) -- ISN: (85171) : S -> (0x0) at (0x7fffffffed00) -- Size = (4) -- vaddr (0x7fffffffed00) -- paddr (0xc5d00) 

-- ReadReq [d40:d7f] IF Miss --  Latency: 502 

-- Tick (139560000) -- ISN: (85175) : L from (0x7fffffffed00) -- of Size = (4) -- vaddr (0x7fffffffed00) -- paddr (0xc5d00) 

-- Sqsh -> ISN (85174)

-- ReadReq [d00:d3f] IF Hit -- Blk --state: 7 (E) valid: 1 writable: 1 readable: 1 dirty: 0 | tag: 0x3 set: 0x4 way: 0 Latency: 2 

-- WriteReq [bc5e4:bc5e7] Miss --  Latency: 502 

-- ReadReq [d40:d7f] IF Miss --  Latency: 502 

-- Tick (139564500) -- ISN: (85217) : L from (0x7fffffffed00) -- of Size = (4) -- vaddr (0x7fffffffed00) -- paddr (0xc5d00) 

-- Tick (139565000) -- ISN: (85224) : S -> (0x0) at (0x7fffffffed04) -- Size = (4) -- vaddr (0x7fffffffed04) -- paddr (0xc5d04) 

-- Tick (139566000) -- ISN: (85231) : S -> (0x26) at (0x7fffffffecf8) -- Size = (8) -- vaddr (0x7fffffffecf8) -- paddr (0xc5cf8) 

-- Tick (139566000) -- ISN: (85234) : L from (0x7fffffffed04) -- of Size = (4) -- vaddr (0x7fffffffed04) -- paddr (0xc5d04) 

-- Tick (139566500) -- ISN: (85238) : S -> (0x30) at (0x7fffffffecf0) -- Size = (8) -- vaddr (0x7fffffffecf0) -- paddr (0xc5cf0) 

-- Tick (139566500) -- ISN: (85241) : L from (0x7fffffffed04) -- of Size = (4) -- vaddr (0x7fffffffed04) -- paddr (0xc5d04) 

-- Tick (139566500) -- ISN: (85245) : L from (0x7fffffffed04) -- of Size = (4) -- vaddr (0x7fffffffed04) -- paddr (0xc5d04) 

-- Sqsh -> ISN (85222)

-- ReadReq [cc0:cff] IF Hit -- Blk --state: 7 (E) valid: 1 writable: 1 readable: 1 dirty: 0 | tag: 0x3 set: 0x3 way: 0 Latency: 2 

-- ReadReq [d00:d3f] IF Hit -- Blk --state: 7 (E) valid: 1 writable: 1 readable: 1 dirty: 0 | tag: 0x3 set: 0x4 way: 0 Latency: 2 

-- ReadReq [d40:d7f] IF Miss --  Latency: 502 

-- Tick (139572000) -- ISN: (85248) : L from (0x7fffffffed00) -- of Size = (4) -- vaddr (0x7fffffffed00) -- paddr (0xc5d00) 

-- Tick (139573000) -- ISN: (85255) : L from (0x7fffffffed00) -- of Size = (4) -- vaddr (0x7fffffffed00) -- paddr (0xc5d00) 

-- Tick (139573000) -- ISN: (85259) : L from (0x7fffffffed00) -- of Size = (4) -- vaddr (0x7fffffffed00) -- paddr (0xc5d00) 

-- Tick (139574000) -- ISN: (85254) : S -> (0x0) at (0x6bc440) -- Size = (4) -- vaddr (0x6bc440) -- paddr (0xbc440) 

-- Tick (139574000) -- ISN: (85266) : S -> (0x0) at (0x7fffffffed04) -- Size = (4) -- vaddr (0x7fffffffed04) -- paddr (0xc5d04) 

-- Tick (139574500) -- ISN: (85258) : S -> (0x1) at (0x7fffffffed00) -- Size = (4) -- vaddr (0x7fffffffed00) -- paddr (0xc5d00) 

-- Tick (139574500) -- ISN: (85273) : S -> (0x26) at (0x7fffffffecf8) -- Size = (8) -- vaddr (0x7fffffffecf8) -- paddr (0xc5cf8) 

-- Tick (139574500) -- ISN: (85276) : L from (0x7fffffffed04) -- of Size = (4) -- vaddr (0x7fffffffed04) -- paddr (0xc5d04) 

-- Tick (139575000) -- ISN: (85283) : L from (0x7fffffffed04) -- of Size = (4) -- vaddr (0x7fffffffed04) -- paddr (0xc5d04) 

-- Tick (139575000) -- ISN: (85287) : L from (0x7fffffffed04) -- of Size = (4) -- vaddr (0x7fffffffed04) -- paddr (0xc5d04) 

-- Sqsh -> ISN (85258)

-- ReadReq [d00:d3f] IF Hit -- Blk --state: 7 (E) valid: 1 writable: 1 readable: 1 dirty: 0 | tag: 0x3 set: 0x4 way: 0 Latency: 2 

-- ReadReq [d40:d7f] IF Miss --  Latency: 502 

-- Tick (139580500) -- ISN: (85290) : L from (0x7fffffffed00) -- of Size = (4) -- vaddr (0x7fffffffed00) -- paddr (0xc5d00) 

-- Tick (139581000) -- ISN: (85297) : S -> (0x0) at (0x7fffffffed04) -- Size = (4) -- vaddr (0x7fffffffed04) -- paddr (0xc5d04) 

-- Tick (139582000) -- ISN: (85304) : S -> (0x26) at (0x7fffffffecf8) -- Size = (8) -- vaddr (0x7fffffffecf8) -- paddr (0xc5cf8) 

-- Tick (139582000) -- ISN: (85307) : L from (0x7fffffffed04) -- of Size = (4) -- vaddr (0x7fffffffed04) -- paddr (0xc5d04) 

-- Tick (139582500) -- ISN: (85311) : S -> (0x30) at (0x7fffffffecf0) -- Size = (8) -- vaddr (0x7fffffffecf0) -- paddr (0xc5cf0) 

-- Tick (139582500) -- ISN: (85314) : L from (0x7fffffffed04) -- of Size = (4) -- vaddr (0x7fffffffed04) -- paddr (0xc5d04) 

-- Tick (139582500) -- ISN: (85318) : L from (0x7fffffffed04) -- of Size = (4) -- vaddr (0x7fffffffed04) -- paddr (0xc5d04) 

-- Sqsh -> ISN (85295)

-- ReadReq [cc0:cff] IF Hit -- Blk --state: 7 (E) valid: 1 writable: 1 readable: 1 dirty: 0 | tag: 0x3 set: 0x3 way: 0 Latency: 2 

-- ReadReq [d00:d3f] IF Hit -- Blk --state: 7 (E) valid: 1 writable: 1 readable: 1 dirty: 0 | tag: 0x3 set: 0x4 way: 0 Latency: 2 

-- ReadReq [d40:d7f] IF Miss --  Latency: 502 

-- Tick (139588000) -- ISN: (85321) : L from (0x7fffffffed00) -- of Size = (4) -- vaddr (0x7fffffffed00) -- paddr (0xc5d00) 

-- Tick (139589000) -- ISN: (85328) : L from (0x7fffffffed00) -- of Size = (4) -- vaddr (0x7fffffffed00) -- paddr (0xc5d00) 

-- Tick (139590000) -- ISN: (85327) : S -> (0x0) at (0x6bc444) -- Size = (4) -- vaddr (0x6bc444) -- paddr (0xbc444) 

-- Tick (139590000) -- ISN: (85339) : S -> (0x0) at (0x7fffffffed04) -- Size = (4) -- vaddr (0x7fffffffed04) -- paddr (0xc5d04) 

-- Tick (139590500) -- ISN: (85331) : S -> (0x2) at (0x7fffffffed00) -- Size = (4) -- vaddr (0x7fffffffed00) -- paddr (0xc5d00) 

-- Tick (139590500) -- ISN: (85346) : S -> (0x26) at (0x7fffffffecf8) -- Size = (8) -- vaddr (0x7fffffffecf8) -- paddr (0xc5cf8) 

-- Tick (139590500) -- ISN: (85349) : L from (0x7fffffffed04) -- of Size = (4) -- vaddr (0x7fffffffed04) -- paddr (0xc5d04) 

-- Tick (139591000) -- ISN: (85332) : L from (0x7fffffffed00) -- of Size = (4) -- vaddr (0x7fffffffed00) -- paddr (0xc5d00) 

-- Tick (139591000) -- ISN: (85353) : S -> (0x30) at (0x7fffffffecf0) -- Size = (8) -- vaddr (0x7fffffffecf0) -- paddr (0xc5cf0) 

-- Tick (139591000) -- ISN: (85356) : L from (0x7fffffffed04) -- of Size = (4) -- vaddr (0x7fffffffed04) -- paddr (0xc5d04) 

-- Tick (139591000) -- ISN: (85360) : L from (0x7fffffffed04) -- of Size = (4) -- vaddr (0x7fffffffed04) -- paddr (0xc5d04) 

-- Sqsh -> ISN (85342)

-- ReadReq [d00:d3f] IF Hit -- Blk --state: 7 (E) valid: 1 writable: 1 readable: 1 dirty: 0 | tag: 0x3 set: 0x4 way: 0 Latency: 2 

-- ReadReq [d40:d7f] IF Miss --  Latency: 502 

-- Sqsh -> ISN (85337)

-- ReadReq [cc0:cff] IF Hit -- Blk --state: 7 (E) valid: 1 writable: 1 readable: 1 dirty: 0 | tag: 0x3 set: 0x3 way: 0 Latency: 2 

-- ReadReq [d00:d3f] IF Hit -- Blk --state: 7 (E) valid: 1 writable: 1 readable: 1 dirty: 0 | tag: 0x3 set: 0x4 way: 0 Latency: 2 

-- ReadReq [d40:d7f] IF Miss --  Latency: 502 

-- Tick (139598500) -- ISN: (85366) : L from (0x7fffffffed00) -- of Size = (4) -- vaddr (0x7fffffffed00) -- paddr (0xc5d00) 

-- Tick (139599500) -- ISN: (85373) : L from (0x7fffffffed00) -- of Size = (4) -- vaddr (0x7fffffffed00) -- paddr (0xc5d00) 

-- Tick (139600500) -- ISN: (85372) : S -> (0x0) at (0x6bc448) -- Size = (4) -- vaddr (0x6bc448) -- paddr (0xbc448) 

-- Tick (139600500) -- ISN: (85384) : S -> (0x0) at (0x7fffffffed04) -- Size = (4) -- vaddr (0x7fffffffed04) -- paddr (0xc5d04) 

-- Tick (139601000) -- ISN: (85376) : S -> (0x3) at (0x7fffffffed00) -- Size = (4) -- vaddr (0x7fffffffed00) -- paddr (0xc5d00) 

-- Tick (139601000) -- ISN: (85391) : S -> (0x26) at (0x7fffffffecf8) -- Size = (8) -- vaddr (0x7fffffffecf8) -- paddr (0xc5cf8) 

-- Tick (139601000) -- ISN: (85394) : L from (0x7fffffffed04) -- of Size = (4) -- vaddr (0x7fffffffed04) -- paddr (0xc5d04) 

-- Tick (139601500) -- ISN: (85377) : L from (0x7fffffffed00) -- of Size = (4) -- vaddr (0x7fffffffed00) -- paddr (0xc5d00) 

-- Tick (139601500) -- ISN: (85398) : S -> (0x30) at (0x7fffffffecf0) -- Size = (8) -- vaddr (0x7fffffffecf0) -- paddr (0xc5cf0) 

-- Tick (139601500) -- ISN: (85401) : L from (0x7fffffffed04) -- of Size = (4) -- vaddr (0x7fffffffed04) -- paddr (0xc5d04) 

-- Tick (139601500) -- ISN: (85405) : L from (0x7fffffffed04) -- of Size = (4) -- vaddr (0x7fffffffed04) -- paddr (0xc5d04) 

-- Sqsh -> ISN (85387)

-- ReadReq [d00:d3f] IF Hit -- Blk --state: 7 (E) valid: 1 writable: 1 readable: 1 dirty: 0 | tag: 0x3 set: 0x4 way: 0 Latency: 2 

-- ReadReq [d40:d7f] IF Miss --  Latency: 502 

-- Sqsh -> ISN (85382)

-- ReadReq [cc0:cff] IF Hit -- Blk --state: 7 (E) valid: 1 writable: 1 readable: 1 dirty: 0 | tag: 0x3 set: 0x3 way: 0 Latency: 2 

-- ReadReq [d00:d3f] IF Hit -- Blk --state: 7 (E) valid: 1 writable: 1 readable: 1 dirty: 0 | tag: 0x3 set: 0x4 way: 0 Latency: 2 

-- ReadReq [d40:d7f] IF Miss --  Latency: 502 

-- Tick (139609000) -- ISN: (85411) : L from (0x7fffffffed00) -- of Size = (4) -- vaddr (0x7fffffffed00) -- paddr (0xc5d00) 

-- Tick (139610000) -- ISN: (85418) : L from (0x7fffffffed00) -- of Size = (4) -- vaddr (0x7fffffffed00) -- paddr (0xc5d00) 

-- Tick (139611000) -- ISN: (85417) : S -> (0x0) at (0x6bc44c) -- Size = (4) -- vaddr (0x6bc44c) -- paddr (0xbc44c) 

-- Tick (139611000) -- ISN: (85429) : S -> (0x0) at (0x7fffffffed04) -- Size = (4) -- vaddr (0x7fffffffed04) -- paddr (0xc5d04) 

-- Tick (139611000) -- ISN: (85433) : L from (0x7fffffffed04) -- of Size = (4) -- vaddr (0x7fffffffed04) -- paddr (0xc5d04) 

-- Tick (139611500) -- ISN: (85421) : S -> (0x4) at (0x7fffffffed00) -- Size = (4) -- vaddr (0x7fffffffed00) -- paddr (0xc5d00) 

-- Tick (139612000) -- ISN: (85422) : L from (0x7fffffffed00) -- of Size = (4) -- vaddr (0x7fffffffed00) -- paddr (0xc5d00) 

-- Sqsh -> ISN (85432)

-- ReadReq [d00:d3f] IF Hit -- Blk --state: 7 (E) valid: 1 writable: 1 readable: 1 dirty: 0 | tag: 0x3 set: 0x4 way: 0 Latency: 2 

-- ReadReq [d40:d7f] IF Hit -- Blk --state: 7 (E) valid: 1 writable: 1 readable: 1 dirty: 0 | tag: 0x3 set: 0x5 way: 0 Latency: 2 

-- Sqsh -> ISN (85427)

-- ReadReq [cc0:cff] IF Hit -- Blk --state: 7 (E) valid: 1 writable: 1 readable: 1 dirty: 0 | tag: 0x3 set: 0x3 way: 0 Latency: 2 

-- ReadReq [d00:d3f] IF Hit -- Blk --state: 7 (E) valid: 1 writable: 1 readable: 1 dirty: 0 | tag: 0x3 set: 0x4 way: 0 Latency: 2 

-- ReadReq [cc0:cff] IF Hit -- Blk --state: 7 (E) valid: 1 writable: 1 readable: 1 dirty: 0 | tag: 0x3 set: 0x3 way: 0 Latency: 2 

-- ReadReq [d00:d3f] IF Hit -- Blk --state: 7 (E) valid: 1 writable: 1 readable: 1 dirty: 0 | tag: 0x3 set: 0x4 way: 0 Latency: 2 

-- Tick (139618500) -- ISN: (85455) : L from (0x7fffffffed00) -- of Size = (4) -- vaddr (0x7fffffffed00) -- paddr (0xc5d00) 

-- Tick (139619500) -- ISN: (85462) : L from (0x7fffffffed00) -- of Size = (4) -- vaddr (0x7fffffffed00) -- paddr (0xc5d00) 

-- ReadReq [cc0:cff] IF Hit -- Blk --state: 7 (E) valid: 1 writable: 1 readable: 1 dirty: 0 | tag: 0x3 set: 0x3 way: 0 Latency: 2 

-- Tick (139620500) -- ISN: (85461) : S -> (0x0) at (0x6bc450) -- Size = (4) -- vaddr (0x6bc450) -- paddr (0xbc450) 

-- ReadReq [d00:d3f] IF Hit -- Blk --state: 7 (E) valid: 1 writable: 1 readable: 1 dirty: 0 | tag: 0x3 set: 0x4 way: 0 Latency: 2 

-- Tick (139621000) -- ISN: (85465) : S -> (0x5) at (0x7fffffffed00) -- Size = (4) -- vaddr (0x7fffffffed00) -- paddr (0xc5d00) 

-- Tick (139621000) -- ISN: (85472) : L from (0x7fffffffed00) -- of Size = (4) -- vaddr (0x7fffffffed00) -- paddr (0xc5d00) 

-- Tick (139621500) -- ISN: (85466) : L from (0x7fffffffed00) -- of Size = (4) -- vaddr (0x7fffffffed00) -- paddr (0xc5d00) 

-- Tick (139622000) -- ISN: (85479) : L from (0x7fffffffed00) -- of Size = (4) -- vaddr (0x7fffffffed00) -- paddr (0xc5d00) 

-- ReadReq [cc0:cff] IF Hit -- Blk --state: 7 (E) valid: 1 writable: 1 readable: 1 dirty: 0 | tag: 0x3 set: 0x3 way: 0 Latency: 2 

-- Tick (139623000) -- ISN: (85478) : S -> (0x0) at (0x6bc454) -- Size = (4) -- vaddr (0x6bc454) -- paddr (0xbc454) 

-- ReadReq [d00:d3f] IF Hit -- Blk --state: 7 (E) valid: 1 writable: 1 readable: 1 dirty: 0 | tag: 0x3 set: 0x4 way: 0 Latency: 2 

-- Tick (139623500) -- ISN: (85482) : S -> (0x6) at (0x7fffffffed00) -- Size = (4) -- vaddr (0x7fffffffed00) -- paddr (0xc5d00) 

-- Tick (139623500) -- ISN: (85489) : L from (0x7fffffffed00) -- of Size = (4) -- vaddr (0x7fffffffed00) -- paddr (0xc5d00) 

-- Tick (139624000) -- ISN: (85483) : L from (0x7fffffffed00) -- of Size = (4) -- vaddr (0x7fffffffed00) -- paddr (0xc5d00) 

-- Tick (139624500) -- ISN: (85496) : L from (0x7fffffffed00) -- of Size = (4) -- vaddr (0x7fffffffed00) -- paddr (0xc5d00) 

-- ReadReq [cc0:cff] IF Hit -- Blk --state: 7 (E) valid: 1 writable: 1 readable: 1 dirty: 0 | tag: 0x3 set: 0x3 way: 0 Latency: 2 

-- Tick (139625500) -- ISN: (85495) : S -> (0x0) at (0x6bc458) -- Size = (4) -- vaddr (0x6bc458) -- paddr (0xbc458) 

-- ReadReq [d00:d3f] IF Hit -- Blk --state: 7 (E) valid: 1 writable: 1 readable: 1 dirty: 0 | tag: 0x3 set: 0x4 way: 0 Latency: 2 

-- Tick (139626000) -- ISN: (85499) : S -> (0x7) at (0x7fffffffed00) -- Size = (4) -- vaddr (0x7fffffffed00) -- paddr (0xc5d00) 

-- Tick (139626000) -- ISN: (85506) : L from (0x7fffffffed00) -- of Size = (4) -- vaddr (0x7fffffffed00) -- paddr (0xc5d00) 

-- Tick (139626500) -- ISN: (85500) : L from (0x7fffffffed00) -- of Size = (4) -- vaddr (0x7fffffffed00) -- paddr (0xc5d00) 

-- Tick (139627000) -- ISN: (85513) : L from (0x7fffffffed00) -- of Size = (4) -- vaddr (0x7fffffffed00) -- paddr (0xc5d00) 

-- WriteReq [c5d00:c5d03] Hit -- Blk --state: 7 (E) valid: 1 writable: 1 readable: 1 dirty: 0 | tag: 0x317 set: 0x4 way: 0 Latency: 2 

-- ReadReq [cc0:cff] IF Hit -- Blk --state: 7 (E) valid: 1 writable: 1 readable: 1 dirty: 0 | tag: 0x3 set: 0x3 way: 0 Latency: 2 

-- Tick (139628000) -- ISN: (85512) : S -> (0x0) at (0x6bc45c) -- Size = (4) -- vaddr (0x6bc45c) -- paddr (0xbc45c) 

-- WriteReq [bc440:bc443] Miss --  Latency: 502 

-- ReadReq [d00:d3f] IF Hit -- Blk --state: 7 (E) valid: 1 writable: 1 readable: 1 dirty: 0 | tag: 0x3 set: 0x4 way: 0 Latency: 2 

-- Tick (139628500) -- ISN: (85516) : S -> (0x8) at (0x7fffffffed00) -- Size = (4) -- vaddr (0x7fffffffed00) -- paddr (0xc5d00) 

-- Tick (139628500) -- ISN: (85523) : L from (0x7fffffffed00) -- of Size = (4) -- vaddr (0x7fffffffed00) -- paddr (0xc5d00) 

-- Tick (139629000) -- ISN: (85517) : L from (0x7fffffffed00) -- of Size = (4) -- vaddr (0x7fffffffed00) -- paddr (0xc5d00) 

-- Tick (139629500) -- ISN: (85530) : L from (0x7fffffffed00) -- of Size = (4) -- vaddr (0x7fffffffed00) -- paddr (0xc5d00) 

-- ReadReq [cc0:cff] IF Hit -- Blk --state: 7 (E) valid: 1 writable: 1 readable: 1 dirty: 0 | tag: 0x3 set: 0x3 way: 0 Latency: 2 

-- Tick (139630500) -- ISN: (85529) : S -> (0x0) at (0x6bc460) -- Size = (4) -- vaddr (0x6bc460) -- paddr (0xbc460) 

-- ReadReq [d00:d3f] IF Hit -- Blk --state: 7 (E) valid: 1 writable: 1 readable: 1 dirty: 0 | tag: 0x3 set: 0x4 way: 0 Latency: 2 

-- Tick (139631000) -- ISN: (85533) : S -> (0x9) at (0x7fffffffed00) -- Size = (4) -- vaddr (0x7fffffffed00) -- paddr (0xc5d00) 

-- Tick (139631000) -- ISN: (85540) : L from (0x7fffffffed00) -- of Size = (4) -- vaddr (0x7fffffffed00) -- paddr (0xc5d00) 

-- Tick (139631500) -- ISN: (85534) : L from (0x7fffffffed00) -- of Size = (4) -- vaddr (0x7fffffffed00) -- paddr (0xc5d00) 

-- Tick (139632000) -- ISN: (85547) : L from (0x7fffffffed00) -- of Size = (4) -- vaddr (0x7fffffffed00) -- paddr (0xc5d00) 

-- ReadReq [cc0:cff] IF Hit -- Blk --state: 7 (E) valid: 1 writable: 1 readable: 1 dirty: 0 | tag: 0x3 set: 0x3 way: 0 Latency: 2 

-- Tick (139633000) -- ISN: (85546) : S -> (0x0) at (0x6bc464) -- Size = (4) -- vaddr (0x6bc464) -- paddr (0xbc464) 

-- ReadReq [d00:d3f] IF Hit -- Blk --state: 7 (E) valid: 1 writable: 1 readable: 1 dirty: 0 | tag: 0x3 set: 0x4 way: 0 Latency: 2 

-- Tick (139633500) -- ISN: (85550) : S -> (0xa) at (0x7fffffffed00) -- Size = (4) -- vaddr (0x7fffffffed00) -- paddr (0xc5d00) 

-- Tick (139633500) -- ISN: (85557) : L from (0x7fffffffed00) -- of Size = (4) -- vaddr (0x7fffffffed00) -- paddr (0xc5d00) 

-- Tick (139634000) -- ISN: (85551) : L from (0x7fffffffed00) -- of Size = (4) -- vaddr (0x7fffffffed00) -- paddr (0xc5d00) 

-- Tick (139634500) -- ISN: (85564) : L from (0x7fffffffed00) -- of Size = (4) -- vaddr (0x7fffffffed00) -- paddr (0xc5d00) 

-- ReadReq [cc0:cff] IF Hit -- Blk --state: 7 (E) valid: 1 writable: 1 readable: 1 dirty: 0 | tag: 0x3 set: 0x3 way: 0 Latency: 2 

-- Tick (139635500) -- ISN: (85563) : S -> (0x0) at (0x6bc468) -- Size = (4) -- vaddr (0x6bc468) -- paddr (0xbc468) 

-- ReadReq [d00:d3f] IF Hit -- Blk --state: 7 (E) valid: 1 writable: 1 readable: 1 dirty: 0 | tag: 0x3 set: 0x4 way: 0 Latency: 2 

-- Tick (139636000) -- ISN: (85567) : S -> (0xb) at (0x7fffffffed00) -- Size = (4) -- vaddr (0x7fffffffed00) -- paddr (0xc5d00) 

-- Tick (139636000) -- ISN: (85574) : L from (0x7fffffffed00) -- of Size = (4) -- vaddr (0x7fffffffed00) -- paddr (0xc5d00) 

-- Tick (139636500) -- ISN: (85568) : L from (0x7fffffffed00) -- of Size = (4) -- vaddr (0x7fffffffed00) -- paddr (0xc5d00) 

-- Tick (139637000) -- ISN: (85581) : L from (0x7fffffffed00) -- of Size = (4) -- vaddr (0x7fffffffed00) -- paddr (0xc5d00) 

-- ReadReq [cc0:cff] IF Hit -- Blk --state: 7 (E) valid: 1 writable: 1 readable: 1 dirty: 0 | tag: 0x3 set: 0x3 way: 0 Latency: 2 

-- Tick (139638000) -- ISN: (85580) : S -> (0x0) at (0x6bc46c) -- Size = (4) -- vaddr (0x6bc46c) -- paddr (0xbc46c) 

-- ReadReq [d00:d3f] IF Hit -- Blk --state: 7 (E) valid: 1 writable: 1 readable: 1 dirty: 0 | tag: 0x3 set: 0x4 way: 0 Latency: 2 

-- Tick (139638500) -- ISN: (85584) : S -> (0xc) at (0x7fffffffed00) -- Size = (4) -- vaddr (0x7fffffffed00) -- paddr (0xc5d00) 

-- Tick (139638500) -- ISN: (85591) : L from (0x7fffffffed00) -- of Size = (4) -- vaddr (0x7fffffffed00) -- paddr (0xc5d00) 

-- Tick (139639000) -- ISN: (85585) : L from (0x7fffffffed00) -- of Size = (4) -- vaddr (0x7fffffffed00) -- paddr (0xc5d00) 

-- Tick (139639500) -- ISN: (85598) : L from (0x7fffffffed00) -- of Size = (4) -- vaddr (0x7fffffffed00) -- paddr (0xc5d00) 

-- ReadReq [cc0:cff] IF Hit -- Blk --state: 7 (E) valid: 1 writable: 1 readable: 1 dirty: 0 | tag: 0x3 set: 0x3 way: 0 Latency: 2 

-- Tick (139640500) -- ISN: (85597) : S -> (0x0) at (0x6bc470) -- Size = (4) -- vaddr (0x6bc470) -- paddr (0xbc470) 

-- ReadReq [d00:d3f] IF Hit -- Blk --state: 7 (E) valid: 1 writable: 1 readable: 1 dirty: 0 | tag: 0x3 set: 0x4 way: 0 Latency: 2 

-- Tick (139641000) -- ISN: (85601) : S -> (0xd) at (0x7fffffffed00) -- Size = (4) -- vaddr (0x7fffffffed00) -- paddr (0xc5d00) 

-- Tick (139641000) -- ISN: (85608) : L from (0x7fffffffed00) -- of Size = (4) -- vaddr (0x7fffffffed00) -- paddr (0xc5d00) 

-- Tick (139641500) -- ISN: (85602) : L from (0x7fffffffed00) -- of Size = (4) -- vaddr (0x7fffffffed00) -- paddr (0xc5d00) 

-- Tick (139642000) -- ISN: (85615) : L from (0x7fffffffed00) -- of Size = (4) -- vaddr (0x7fffffffed00) -- paddr (0xc5d00) 

-- ReadReq [cc0:cff] IF Hit -- Blk --state: 7 (E) valid: 1 writable: 1 readable: 1 dirty: 0 | tag: 0x3 set: 0x3 way: 0 Latency: 2 

-- Tick (139643000) -- ISN: (85614) : S -> (0x0) at (0x6bc474) -- Size = (4) -- vaddr (0x6bc474) -- paddr (0xbc474) 

-- ReadReq [d00:d3f] IF Hit -- Blk --state: 7 (E) valid: 1 writable: 1 readable: 1 dirty: 0 | tag: 0x3 set: 0x4 way: 0 Latency: 2 

-- Tick (139643500) -- ISN: (85618) : S -> (0xe) at (0x7fffffffed00) -- Size = (4) -- vaddr (0x7fffffffed00) -- paddr (0xc5d00) 

-- Tick (139643500) -- ISN: (85625) : L from (0x7fffffffed00) -- of Size = (4) -- vaddr (0x7fffffffed00) -- paddr (0xc5d00) 

-- Tick (139644000) -- ISN: (85619) : L from (0x7fffffffed00) -- of Size = (4) -- vaddr (0x7fffffffed00) -- paddr (0xc5d00) 

-- Tick (139644500) -- ISN: (85632) : L from (0x7fffffffed00) -- of Size = (4) -- vaddr (0x7fffffffed00) -- paddr (0xc5d00) 

-- ReadReq [cc0:cff] IF Hit -- Blk --state: 7 (E) valid: 1 writable: 1 readable: 1 dirty: 0 | tag: 0x3 set: 0x3 way: 0 Latency: 2 

-- Tick (139645500) -- ISN: (85631) : S -> (0x0) at (0x6bc478) -- Size = (4) -- vaddr (0x6bc478) -- paddr (0xbc478) 

-- ReadReq [d00:d3f] IF Hit -- Blk --state: 7 (E) valid: 1 writable: 1 readable: 1 dirty: 0 | tag: 0x3 set: 0x4 way: 0 Latency: 2 

-- Tick (139646000) -- ISN: (85635) : S -> (0xf) at (0x7fffffffed00) -- Size = (4) -- vaddr (0x7fffffffed00) -- paddr (0xc5d00) 

-- Tick (139646000) -- ISN: (85642) : L from (0x7fffffffed00) -- of Size = (4) -- vaddr (0x7fffffffed00) -- paddr (0xc5d00) 

-- Tick (139646500) -- ISN: (85636) : L from (0x7fffffffed00) -- of Size = (4) -- vaddr (0x7fffffffed00) -- paddr (0xc5d00) 

-- Tick (139647000) -- ISN: (85649) : L from (0x7fffffffed00) -- of Size = (4) -- vaddr (0x7fffffffed00) -- paddr (0xc5d00) 

-- ReadReq [cc0:cff] IF Hit -- Blk --state: 7 (E) valid: 1 writable: 1 readable: 1 dirty: 0 | tag: 0x3 set: 0x3 way: 0 Latency: 2 

-- Tick (139648000) -- ISN: (85648) : S -> (0x0) at (0x6bc47c) -- Size = (4) -- vaddr (0x6bc47c) -- paddr (0xbc47c) 

-- ReadReq [d00:d3f] IF Hit -- Blk --state: 7 (E) valid: 1 writable: 1 readable: 1 dirty: 0 | tag: 0x3 set: 0x4 way: 0 Latency: 2 

-- Tick (139648500) -- ISN: (85652) : S -> (0x10) at (0x7fffffffed00) -- Size = (4) -- vaddr (0x7fffffffed00) -- paddr (0xc5d00) 

-- Tick (139648500) -- ISN: (85659) : L from (0x7fffffffed00) -- of Size = (4) -- vaddr (0x7fffffffed00) -- paddr (0xc5d00) 

-- Tick (139649000) -- ISN: (85653) : L from (0x7fffffffed00) -- of Size = (4) -- vaddr (0x7fffffffed00) -- paddr (0xc5d00) 

-- Tick (139649500) -- ISN: (85666) : L from (0x7fffffffed00) -- of Size = (4) -- vaddr (0x7fffffffed00) -- paddr (0xc5d00) 

-- ReadReq [cc0:cff] IF Hit -- Blk --state: 7 (E) valid: 1 writable: 1 readable: 1 dirty: 0 | tag: 0x3 set: 0x3 way: 0 Latency: 2 

-- Tick (139650500) -- ISN: (85665) : S -> (0x0) at (0x6bc480) -- Size = (4) -- vaddr (0x6bc480) -- paddr (0xbc480) 

-- ReadReq [d00:d3f] IF Hit -- Blk --state: 7 (E) valid: 1 writable: 1 readable: 1 dirty: 0 | tag: 0x3 set: 0x4 way: 0 Latency: 2 

-- ReadReq [cc0:cff] IF Hit -- Blk --state: 7 (E) valid: 1 writable: 1 readable: 1 dirty: 0 | tag: 0x3 set: 0x3 way: 0 Latency: 2 

-- WriteReq [c5d00:c5d03] Hit -- Blk --state: f (M) valid: 1 writable: 1 readable: 1 dirty: 1 | tag: 0x317 set: 0x4 way: 0 Latency: 2 

-- WriteReq [bc444:bc447] Hit -- Blk --state: f (M) valid: 1 writable: 1 readable: 1 dirty: 1 | tag: 0x2f1 set: 0x1 way: 0 Latency: 2 

-- ReadReq [d00:d3f] IF Hit -- Blk --state: 7 (E) valid: 1 writable: 1 readable: 1 dirty: 0 | tag: 0x3 set: 0x4 way: 0 Latency: 2 

-- Tick (139760000) -- ISN: (85669) : S -> (0x11) at (0x7fffffffed00) -- Size = (4) -- vaddr (0x7fffffffed00) -- paddr (0xc5d00) 

-- WriteReq [c5d00:c5d03] Hit -- Blk --state: f (M) valid: 1 writable: 1 readable: 1 dirty: 1 | tag: 0x317 set: 0x4 way: 0 Latency: 2 

-- Tick (139760500) -- ISN: (85670) : L from (0x7fffffffed00) -- of Size = (4) -- vaddr (0x7fffffffed00) -- paddr (0xc5d00) 

-- Tick (139761000) -- ISN: (85676) : L from (0x7fffffffed00) -- of Size = (4) -- vaddr (0x7fffffffed00) -- paddr (0xc5d00) 

-- WriteReq [bc448:bc44b] Hit -- Blk --state: f (M) valid: 1 writable: 1 readable: 1 dirty: 1 | tag: 0x2f1 set: 0x1 way: 0 Latency: 2 

-- ReadReq [cc0:cff] IF Hit -- Blk --state: 7 (E) valid: 1 writable: 1 readable: 1 dirty: 0 | tag: 0x3 set: 0x3 way: 0 Latency: 2 

-- Tick (139762000) -- ISN: (85683) : L from (0x7fffffffed00) -- of Size = (4) -- vaddr (0x7fffffffed00) -- paddr (0xc5d00) 

-- WriteReq [c5d00:c5d03] Hit -- Blk --state: f (M) valid: 1 writable: 1 readable: 1 dirty: 1 | tag: 0x317 set: 0x4 way: 0 Latency: 2 

-- ReadReq [d00:d3f] IF Hit -- Blk --state: 7 (E) valid: 1 writable: 1 readable: 1 dirty: 0 | tag: 0x3 set: 0x4 way: 0 Latency: 2 

-- Tick (139762500) -- ISN: (85693) : L from (0x7fffffffed00) -- of Size = (4) -- vaddr (0x7fffffffed00) -- paddr (0xc5d00) 

-- Tick (139763000) -- ISN: (85682) : S -> (0x0) at (0x6bc484) -- Size = (4) -- vaddr (0x6bc484) -- paddr (0xbc484) 

-- Tick (139763000) -- ISN: (85700) : L from (0x7fffffffed00) -- of Size = (4) -- vaddr (0x7fffffffed00) -- paddr (0xc5d00) 

-- WriteReq [bc44c:bc44f] Hit -- Blk --state: f (M) valid: 1 writable: 1 readable: 1 dirty: 1 | tag: 0x2f1 set: 0x1 way: 0 Latency: 2 

-- Tick (139763500) -- ISN: (85686) : S -> (0x12) at (0x7fffffffed00) -- Size = (4) -- vaddr (0x7fffffffed00) -- paddr (0xc5d00) 

-- ReadReq [cc0:cff] IF Hit -- Blk --state: 7 (E) valid: 1 writable: 1 readable: 1 dirty: 0 | tag: 0x3 set: 0x3 way: 0 Latency: 2 

-- Tick (139764000) -- ISN: (85687) : L from (0x7fffffffed00) -- of Size = (4) -- vaddr (0x7fffffffed00) -- paddr (0xc5d00) 

-- Tick (139764000) -- ISN: (85710) : L from (0x7fffffffed00) -- of Size = (4) -- vaddr (0x7fffffffed00) -- paddr (0xc5d00) 

-- WriteReq [c5d00:c5d03] Hit -- Blk --state: f (M) valid: 1 writable: 1 readable: 1 dirty: 1 | tag: 0x317 set: 0x4 way: 0 Latency: 2 

-- Sqsh -> ISN (85692)

-- ReadReq [cc0:cff] IF Hit -- Blk --state: 7 (E) valid: 1 writable: 1 readable: 1 dirty: 0 | tag: 0x3 set: 0x3 way: 0 Latency: 2 

-- WriteReq [bc450:bc453] Hit -- Blk --state: f (M) valid: 1 writable: 1 readable: 1 dirty: 1 | tag: 0x2f1 set: 0x1 way: 0 Latency: 2 

-- ReadReq [d00:d3f] IF Hit -- Blk --state: 7 (E) valid: 1 writable: 1 readable: 1 dirty: 0 | tag: 0x3 set: 0x4 way: 0 Latency: 2 

-- WriteReq [c5d00:c5d03] Hit -- Blk --state: f (M) valid: 1 writable: 1 readable: 1 dirty: 1 | tag: 0x317 set: 0x4 way: 0 Latency: 2 

-- WriteReq [bc454:bc457] Hit -- Blk --state: f (M) valid: 1 writable: 1 readable: 1 dirty: 1 | tag: 0x2f1 set: 0x1 way: 0 Latency: 2 

-- ReadReq [cc0:cff] IF Hit -- Blk --state: 7 (E) valid: 1 writable: 1 readable: 1 dirty: 0 | tag: 0x3 set: 0x3 way: 0 Latency: 2 

-- WriteReq [c5d00:c5d03] Hit -- Blk --state: f (M) valid: 1 writable: 1 readable: 1 dirty: 1 | tag: 0x317 set: 0x4 way: 0 Latency: 2 

-- ReadReq [d00:d3f] IF Hit -- Blk --state: 7 (E) valid: 1 writable: 1 readable: 1 dirty: 0 | tag: 0x3 set: 0x4 way: 0 Latency: 2 

-- Tick (139769000) -- ISN: (85744) : L from (0x7fffffffed00) -- of Size = (4) -- vaddr (0x7fffffffed00) -- paddr (0xc5d00) 

-- WriteReq [bc458:bc45b] Hit -- Blk --state: f (M) valid: 1 writable: 1 readable: 1 dirty: 1 | tag: 0x2f1 set: 0x1 way: 0 Latency: 2 

-- ReadReq [cc0:cff] IF Hit -- Blk --state: 7 (E) valid: 1 writable: 1 readable: 1 dirty: 0 | tag: 0x3 set: 0x3 way: 0 Latency: 2 

-- Tick (139770000) -- ISN: (85751) : L from (0x7fffffffed00) -- of Size = (4) -- vaddr (0x7fffffffed00) -- paddr (0xc5d00) 

-- WriteReq [c5d00:c5d03] Hit -- Blk --state: f (M) valid: 1 writable: 1 readable: 1 dirty: 1 | tag: 0x317 set: 0x4 way: 0 Latency: 2 

-- ReadReq [d00:d3f] IF Hit -- Blk --state: 7 (E) valid: 1 writable: 1 readable: 1 dirty: 0 | tag: 0x3 set: 0x4 way: 0 Latency: 2 

-- Tick (139771000) -- ISN: (85750) : S -> (0x0) at (0x6bc488) -- Size = (4) -- vaddr (0x6bc488) -- paddr (0xbc488) 

-- WriteReq [bc45c:bc45f] Hit -- Blk --state: f (M) valid: 1 writable: 1 readable: 1 dirty: 1 | tag: 0x2f1 set: 0x1 way: 0 Latency: 2 

-- Tick (139771500) -- ISN: (85754) : S -> (0x13) at (0x7fffffffed00) -- Size = (4) -- vaddr (0x7fffffffed00) -- paddr (0xc5d00) 

-- Tick (139772000) -- ISN: (85755) : L from (0x7fffffffed00) -- of Size = (4) -- vaddr (0x7fffffffed00) -- paddr (0xc5d00) 

-- Tick (139772000) -- ISN: (85761) : L from (0x7fffffffed00) -- of Size = (4) -- vaddr (0x7fffffffed00) -- paddr (0xc5d00) 

-- Tick (139772000) -- ISN: (85768) : L from (0x7fffffffed00) -- of Size = (4) -- vaddr (0x7fffffffed00) -- paddr (0xc5d00) 

-- WriteReq [c5d00:c5d03] Hit -- Blk --state: f (M) valid: 1 writable: 1 readable: 1 dirty: 1 | tag: 0x317 set: 0x4 way: 0 Latency: 2 

-- ReadReq [cc0:cff] IF Hit -- Blk --state: 7 (E) valid: 1 writable: 1 readable: 1 dirty: 0 | tag: 0x3 set: 0x3 way: 0 Latency: 2 

-- WriteReq [bc460:bc463] Hit -- Blk --state: f (M) valid: 1 writable: 1 readable: 1 dirty: 1 | tag: 0x2f1 set: 0x1 way: 0 Latency: 2 

-- ReadReq [d00:d3f] IF Hit -- Blk --state: 7 (E) valid: 1 writable: 1 readable: 1 dirty: 0 | tag: 0x3 set: 0x4 way: 0 Latency: 2 

-- Tick (139773500) -- ISN: (85771) : S -> (0x14) at (0x7fffffffed00) -- Size = (4) -- vaddr (0x7fffffffed00) -- paddr (0xc5d00) 

-- Tick (139774000) -- ISN: (85767) : S -> (0x0) at (0x6bc48c) -- Size = (4) -- vaddr (0x6bc48c) -- paddr (0xbc48c) 

-- Tick (139774000) -- ISN: (85772) : L from (0x7fffffffed00) -- of Size = (4) -- vaddr (0x7fffffffed00) -- paddr (0xc5d00) 

-- Tick (139774000) -- ISN: (85778) : L from (0x7fffffffed00) -- of Size = (4) -- vaddr (0x7fffffffed00) -- paddr (0xc5d00) 

-- WriteReq [c5d00:c5d03] Hit -- Blk --state: f (M) valid: 1 writable: 1 readable: 1 dirty: 1 | tag: 0x317 set: 0x4 way: 0 Latency: 2 

-- Tick (139774500) -- ISN: (85785) : L from (0x7fffffffed00) -- of Size = (4) -- vaddr (0x7fffffffed00) -- paddr (0xc5d00) 

-- ReadReq [cc0:cff] IF Hit -- Blk --state: 7 (E) valid: 1 writable: 1 readable: 1 dirty: 0 | tag: 0x3 set: 0x3 way: 0 Latency: 2 

-- WriteReq [bc464:bc467] Hit -- Blk --state: f (M) valid: 1 writable: 1 readable: 1 dirty: 1 | tag: 0x2f1 set: 0x1 way: 0 Latency: 2 

-- ReadReq [d00:d3f] IF Hit -- Blk --state: 7 (E) valid: 1 writable: 1 readable: 1 dirty: 0 | tag: 0x3 set: 0x4 way: 0 Latency: 2 

-- Tick (139776000) -- ISN: (85784) : S -> (0x0) at (0x6bc490) -- Size = (4) -- vaddr (0x6bc490) -- paddr (0xbc490) 

-- Tick (139776000) -- ISN: (85788) : S -> (0x15) at (0x7fffffffed00) -- Size = (4) -- vaddr (0x7fffffffed00) -- paddr (0xc5d00) 

-- WriteReq [c5d00:c5d03] Hit -- Blk --state: f (M) valid: 1 writable: 1 readable: 1 dirty: 1 | tag: 0x317 set: 0x4 way: 0 Latency: 2 

-- Tick (139776500) -- ISN: (85789) : L from (0x7fffffffed00) -- of Size = (4) -- vaddr (0x7fffffffed00) -- paddr (0xc5d00) 

-- Tick (139776500) -- ISN: (85795) : L from (0x7fffffffed00) -- of Size = (4) -- vaddr (0x7fffffffed00) -- paddr (0xc5d00) 

-- Tick (139777000) -- ISN: (85802) : L from (0x7fffffffed00) -- of Size = (4) -- vaddr (0x7fffffffed00) -- paddr (0xc5d00) 

-- WriteReq [bc468:bc46b] Hit -- Blk --state: f (M) valid: 1 writable: 1 readable: 1 dirty: 1 | tag: 0x2f1 set: 0x1 way: 0 Latency: 2 

-- ReadReq [cc0:cff] IF Hit -- Blk --state: 7 (E) valid: 1 writable: 1 readable: 1 dirty: 0 | tag: 0x3 set: 0x3 way: 0 Latency: 2 

-- WriteReq [c5d00:c5d03] Hit -- Blk --state: f (M) valid: 1 writable: 1 readable: 1 dirty: 1 | tag: 0x317 set: 0x4 way: 0 Latency: 2 

-- ReadReq [d00:d3f] IF Hit -- Blk --state: 7 (E) valid: 1 writable: 1 readable: 1 dirty: 0 | tag: 0x3 set: 0x4 way: 0 Latency: 2 

-- Tick (139778500) -- ISN: (85801) : S -> (0x0) at (0x6bc494) -- Size = (4) -- vaddr (0x6bc494) -- paddr (0xbc494) 

-- Tick (139778500) -- ISN: (85805) : S -> (0x16) at (0x7fffffffed00) -- Size = (4) -- vaddr (0x7fffffffed00) -- paddr (0xc5d00) 

-- Tick (139779000) -- ISN: (85806) : L from (0x7fffffffed00) -- of Size = (4) -- vaddr (0x7fffffffed00) -- paddr (0xc5d00) 

-- Tick (139779000) -- ISN: (85812) : L from (0x7fffffffed00) -- of Size = (4) -- vaddr (0x7fffffffed00) -- paddr (0xc5d00) 

-- WriteReq [bc46c:bc46f] Hit -- Blk --state: f (M) valid: 1 writable: 1 readable: 1 dirty: 1 | tag: 0x2f1 set: 0x1 way: 0 Latency: 2 

-- Tick (139779500) -- ISN: (85819) : L from (0x7fffffffed00) -- of Size = (4) -- vaddr (0x7fffffffed00) -- paddr (0xc5d00) 

-- ReadReq [cc0:cff] IF Hit -- Blk --state: 7 (E) valid: 1 writable: 1 readable: 1 dirty: 0 | tag: 0x3 set: 0x3 way: 0 Latency: 2 

-- WriteReq [c5d00:c5d03] Hit -- Blk --state: f (M) valid: 1 writable: 1 readable: 1 dirty: 1 | tag: 0x317 set: 0x4 way: 0 Latency: 2 

-- ReadReq [d00:d3f] IF Hit -- Blk --state: 7 (E) valid: 1 writable: 1 readable: 1 dirty: 0 | tag: 0x3 set: 0x4 way: 0 Latency: 2 

-- Tick (139781000) -- ISN: (85818) : S -> (0x0) at (0x6bc498) -- Size = (4) -- vaddr (0x6bc498) -- paddr (0xbc498) 

-- Tick (139781000) -- ISN: (85822) : S -> (0x17) at (0x7fffffffed00) -- Size = (4) -- vaddr (0x7fffffffed00) -- paddr (0xc5d00) 

-- WriteReq [bc470:bc473] Hit -- Blk --state: f (M) valid: 1 writable: 1 readable: 1 dirty: 1 | tag: 0x2f1 set: 0x1 way: 0 Latency: 2 

-- Tick (139781500) -- ISN: (85823) : L from (0x7fffffffed00) -- of Size = (4) -- vaddr (0x7fffffffed00) -- paddr (0xc5d00) 

-- Tick (139781500) -- ISN: (85829) : L from (0x7fffffffed00) -- of Size = (4) -- vaddr (0x7fffffffed00) -- paddr (0xc5d00) 

-- Tick (139782000) -- ISN: (85836) : L from (0x7fffffffed00) -- of Size = (4) -- vaddr (0x7fffffffed00) -- paddr (0xc5d00) 

-- WriteReq [c5d00:c5d03] Hit -- Blk --state: f (M) valid: 1 writable: 1 readable: 1 dirty: 1 | tag: 0x317 set: 0x4 way: 0 Latency: 2 

-- ReadReq [cc0:cff] IF Hit -- Blk --state: 7 (E) valid: 1 writable: 1 readable: 1 dirty: 0 | tag: 0x3 set: 0x3 way: 0 Latency: 2 

-- WriteReq [bc474:bc477] Hit -- Blk --state: f (M) valid: 1 writable: 1 readable: 1 dirty: 1 | tag: 0x2f1 set: 0x1 way: 0 Latency: 2 

-- ReadReq [d00:d3f] IF Hit -- Blk --state: 7 (E) valid: 1 writable: 1 readable: 1 dirty: 0 | tag: 0x3 set: 0x4 way: 0 Latency: 2 

-- Tick (139783500) -- ISN: (85835) : S -> (0x0) at (0x6bc49c) -- Size = (4) -- vaddr (0x6bc49c) -- paddr (0xbc49c) 

-- Tick (139783500) -- ISN: (85839) : S -> (0x18) at (0x7fffffffed00) -- Size = (4) -- vaddr (0x7fffffffed00) -- paddr (0xc5d00) 

-- Tick (139784000) -- ISN: (85840) : L from (0x7fffffffed00) -- of Size = (4) -- vaddr (0x7fffffffed00) -- paddr (0xc5d00) 

-- Tick (139784000) -- ISN: (85846) : L from (0x7fffffffed00) -- of Size = (4) -- vaddr (0x7fffffffed00) -- paddr (0xc5d00) 

-- WriteReq [c5d00:c5d03] Hit -- Blk --state: f (M) valid: 1 writable: 1 readable: 1 dirty: 1 | tag: 0x317 set: 0x4 way: 0 Latency: 2 

-- Tick (139784500) -- ISN: (85853) : L from (0x7fffffffed00) -- of Size = (4) -- vaddr (0x7fffffffed00) -- paddr (0xc5d00) 

-- ReadReq [cc0:cff] IF Hit -- Blk --state: 7 (E) valid: 1 writable: 1 readable: 1 dirty: 0 | tag: 0x3 set: 0x3 way: 0 Latency: 2 

-- WriteReq [bc478:bc47b] Hit -- Blk --state: f (M) valid: 1 writable: 1 readable: 1 dirty: 1 | tag: 0x2f1 set: 0x1 way: 0 Latency: 2 

-- ReadReq [d00:d3f] IF Hit -- Blk --state: 7 (E) valid: 1 writable: 1 readable: 1 dirty: 0 | tag: 0x3 set: 0x4 way: 0 Latency: 2 

-- Tick (139786000) -- ISN: (85852) : S -> (0x0) at (0x6bc4a0) -- Size = (4) -- vaddr (0x6bc4a0) -- paddr (0xbc4a0) 

-- Tick (139786000) -- ISN: (85856) : S -> (0x19) at (0x7fffffffed00) -- Size = (4) -- vaddr (0x7fffffffed00) -- paddr (0xc5d00) 

-- WriteReq [c5d00:c5d03] Hit -- Blk --state: f (M) valid: 1 writable: 1 readable: 1 dirty: 1 | tag: 0x317 set: 0x4 way: 0 Latency: 2 

-- Tick (139786500) -- ISN: (85857) : L from (0x7fffffffed00) -- of Size = (4) -- vaddr (0x7fffffffed00) -- paddr (0xc5d00) 

-- Tick (139786500) -- ISN: (85863) : L from (0x7fffffffed00) -- of Size = (4) -- vaddr (0x7fffffffed00) -- paddr (0xc5d00) 

-- Tick (139787000) -- ISN: (85870) : L from (0x7fffffffed00) -- of Size = (4) -- vaddr (0x7fffffffed00) -- paddr (0xc5d00) 

-- WriteReq [bc47c:bc47f] Hit -- Blk --state: f (M) valid: 1 writable: 1 readable: 1 dirty: 1 | tag: 0x2f1 set: 0x1 way: 0 Latency: 2 

-- ReadReq [cc0:cff] IF Hit -- Blk --state: 7 (E) valid: 1 writable: 1 readable: 1 dirty: 0 | tag: 0x3 set: 0x3 way: 0 Latency: 2 

-- WriteReq [c5d00:c5d03] Hit -- Blk --state: f (M) valid: 1 writable: 1 readable: 1 dirty: 1 | tag: 0x317 set: 0x4 way: 0 Latency: 2 

-- ReadReq [d00:d3f] IF Hit -- Blk --state: 7 (E) valid: 1 writable: 1 readable: 1 dirty: 0 | tag: 0x3 set: 0x4 way: 0 Latency: 2 

-- Tick (139788500) -- ISN: (85869) : S -> (0x0) at (0x6bc4a4) -- Size = (4) -- vaddr (0x6bc4a4) -- paddr (0xbc4a4) 

-- Tick (139788500) -- ISN: (85873) : S -> (0x1a) at (0x7fffffffed00) -- Size = (4) -- vaddr (0x7fffffffed00) -- paddr (0xc5d00) 

-- Tick (139789000) -- ISN: (85874) : L from (0x7fffffffed00) -- of Size = (4) -- vaddr (0x7fffffffed00) -- paddr (0xc5d00) 

-- Tick (139789000) -- ISN: (85880) : L from (0x7fffffffed00) -- of Size = (4) -- vaddr (0x7fffffffed00) -- paddr (0xc5d00) 

-- WriteReq [bc480:bc483] Miss --  Latency: 502 

-- Tick (139789500) -- ISN: (85887) : L from (0x7fffffffed00) -- of Size = (4) -- vaddr (0x7fffffffed00) -- paddr (0xc5d00) 

-- ReadReq [cc0:cff] IF Hit -- Blk --state: 7 (E) valid: 1 writable: 1 readable: 1 dirty: 0 | tag: 0x3 set: 0x3 way: 0 Latency: 2 

-- ReadReq [d00:d3f] IF Hit -- Blk --state: 7 (E) valid: 1 writable: 1 readable: 1 dirty: 0 | tag: 0x3 set: 0x4 way: 0 Latency: 2 

-- Tick (139791000) -- ISN: (85886) : S -> (0x0) at (0x6bc4a8) -- Size = (4) -- vaddr (0x6bc4a8) -- paddr (0xbc4a8) 

-- Tick (139791000) -- ISN: (85890) : S -> (0x1b) at (0x7fffffffed00) -- Size = (4) -- vaddr (0x7fffffffed00) -- paddr (0xc5d00) 

-- Tick (139791500) -- ISN: (85891) : L from (0x7fffffffed00) -- of Size = (4) -- vaddr (0x7fffffffed00) -- paddr (0xc5d00) 

-- Tick (139791500) -- ISN: (85897) : L from (0x7fffffffed00) -- of Size = (4) -- vaddr (0x7fffffffed00) -- paddr (0xc5d00) 

-- Tick (139792000) -- ISN: (85904) : L from (0x7fffffffed00) -- of Size = (4) -- vaddr (0x7fffffffed00) -- paddr (0xc5d00) 

-- ReadReq [cc0:cff] IF Hit -- Blk --state: 7 (E) valid: 1 writable: 1 readable: 1 dirty: 0 | tag: 0x3 set: 0x3 way: 0 Latency: 2 

-- ReadReq [d00:d3f] IF Hit -- Blk --state: 7 (E) valid: 1 writable: 1 readable: 1 dirty: 0 | tag: 0x3 set: 0x4 way: 0 Latency: 2 

-- Tick (139793500) -- ISN: (85903) : S -> (0x0) at (0x6bc4ac) -- Size = (4) -- vaddr (0x6bc4ac) -- paddr (0xbc4ac) 

-- Tick (139793500) -- ISN: (85907) : S -> (0x1c) at (0x7fffffffed00) -- Size = (4) -- vaddr (0x7fffffffed00) -- paddr (0xc5d00) 

-- Tick (139794000) -- ISN: (85908) : L from (0x7fffffffed00) -- of Size = (4) -- vaddr (0x7fffffffed00) -- paddr (0xc5d00) 

-- Tick (139794000) -- ISN: (85914) : L from (0x7fffffffed00) -- of Size = (4) -- vaddr (0x7fffffffed00) -- paddr (0xc5d00) 

-- Tick (139794500) -- ISN: (85921) : L from (0x7fffffffed00) -- of Size = (4) -- vaddr (0x7fffffffed00) -- paddr (0xc5d00) 

-- ReadReq [cc0:cff] IF Hit -- Blk --state: 7 (E) valid: 1 writable: 1 readable: 1 dirty: 0 | tag: 0x3 set: 0x3 way: 0 Latency: 2 

-- ReadReq [d00:d3f] IF Hit -- Blk --state: 7 (E) valid: 1 writable: 1 readable: 1 dirty: 0 | tag: 0x3 set: 0x4 way: 0 Latency: 2 

-- Tick (139796000) -- ISN: (85920) : S -> (0x0) at (0x6bc4b0) -- Size = (4) -- vaddr (0x6bc4b0) -- paddr (0xbc4b0) 

-- Tick (139796000) -- ISN: (85924) : S -> (0x1d) at (0x7fffffffed00) -- Size = (4) -- vaddr (0x7fffffffed00) -- paddr (0xc5d00) 

-- Tick (139796500) -- ISN: (85925) : L from (0x7fffffffed00) -- of Size = (4) -- vaddr (0x7fffffffed00) -- paddr (0xc5d00) 

-- Tick (139796500) -- ISN: (85931) : L from (0x7fffffffed00) -- of Size = (4) -- vaddr (0x7fffffffed00) -- paddr (0xc5d00) 

-- Tick (139797000) -- ISN: (85938) : L from (0x7fffffffed00) -- of Size = (4) -- vaddr (0x7fffffffed00) -- paddr (0xc5d00) 

-- ReadReq [cc0:cff] IF Hit -- Blk --state: 7 (E) valid: 1 writable: 1 readable: 1 dirty: 0 | tag: 0x3 set: 0x3 way: 0 Latency: 2 

-- ReadReq [d00:d3f] IF Hit -- Blk --state: 7 (E) valid: 1 writable: 1 readable: 1 dirty: 0 | tag: 0x3 set: 0x4 way: 0 Latency: 2 

-- Tick (139798500) -- ISN: (85937) : S -> (0x0) at (0x6bc4b4) -- Size = (4) -- vaddr (0x6bc4b4) -- paddr (0xbc4b4) 

-- Tick (139798500) -- ISN: (85941) : S -> (0x1e) at (0x7fffffffed00) -- Size = (4) -- vaddr (0x7fffffffed00) -- paddr (0xc5d00) 

-- Tick (139799000) -- ISN: (85942) : L from (0x7fffffffed00) -- of Size = (4) -- vaddr (0x7fffffffed00) -- paddr (0xc5d00) 

-- Tick (139799000) -- ISN: (85948) : L from (0x7fffffffed00) -- of Size = (4) -- vaddr (0x7fffffffed00) -- paddr (0xc5d00) 

-- Tick (139799500) -- ISN: (85955) : L from (0x7fffffffed00) -- of Size = (4) -- vaddr (0x7fffffffed00) -- paddr (0xc5d00) 

-- ReadReq [cc0:cff] IF Hit -- Blk --state: 7 (E) valid: 1 writable: 1 readable: 1 dirty: 0 | tag: 0x3 set: 0x3 way: 0 Latency: 2 

-- ReadReq [d00:d3f] IF Hit -- Blk --state: 7 (E) valid: 1 writable: 1 readable: 1 dirty: 0 | tag: 0x3 set: 0x4 way: 0 Latency: 2 

-- Tick (139801000) -- ISN: (85954) : S -> (0x0) at (0x6bc4b8) -- Size = (4) -- vaddr (0x6bc4b8) -- paddr (0xbc4b8) 

-- Tick (139801000) -- ISN: (85958) : S -> (0x1f) at (0x7fffffffed00) -- Size = (4) -- vaddr (0x7fffffffed00) -- paddr (0xc5d00) 

-- Tick (139801500) -- ISN: (85959) : L from (0x7fffffffed00) -- of Size = (4) -- vaddr (0x7fffffffed00) -- paddr (0xc5d00) 

-- Tick (139801500) -- ISN: (85965) : L from (0x7fffffffed00) -- of Size = (4) -- vaddr (0x7fffffffed00) -- paddr (0xc5d00) 

-- Tick (139802000) -- ISN: (85972) : L from (0x7fffffffed00) -- of Size = (4) -- vaddr (0x7fffffffed00) -- paddr (0xc5d00) 

-- ReadReq [cc0:cff] IF Hit -- Blk --state: 7 (E) valid: 1 writable: 1 readable: 1 dirty: 0 | tag: 0x3 set: 0x3 way: 0 Latency: 2 

-- ReadReq [d00:d3f] IF Hit -- Blk --state: 7 (E) valid: 1 writable: 1 readable: 1 dirty: 0 | tag: 0x3 set: 0x4 way: 0 Latency: 2 

-- Tick (139803500) -- ISN: (85971) : S -> (0x0) at (0x6bc4bc) -- Size = (4) -- vaddr (0x6bc4bc) -- paddr (0xbc4bc) 

-- Tick (139803500) -- ISN: (85975) : S -> (0x20) at (0x7fffffffed00) -- Size = (4) -- vaddr (0x7fffffffed00) -- paddr (0xc5d00) 

-- Tick (139804000) -- ISN: (85976) : L from (0x7fffffffed00) -- of Size = (4) -- vaddr (0x7fffffffed00) -- paddr (0xc5d00) 

-- Tick (139804000) -- ISN: (85982) : L from (0x7fffffffed00) -- of Size = (4) -- vaddr (0x7fffffffed00) -- paddr (0xc5d00) 

-- Tick (139804500) -- ISN: (85989) : L from (0x7fffffffed00) -- of Size = (4) -- vaddr (0x7fffffffed00) -- paddr (0xc5d00) 

-- ReadReq [cc0:cff] IF Hit -- Blk --state: 7 (E) valid: 1 writable: 1 readable: 1 dirty: 0 | tag: 0x3 set: 0x3 way: 0 Latency: 2 

-- ReadReq [d00:d3f] IF Hit -- Blk --state: 7 (E) valid: 1 writable: 1 readable: 1 dirty: 0 | tag: 0x3 set: 0x4 way: 0 Latency: 2 

-- Tick (139806000) -- ISN: (85988) : S -> (0x0) at (0x6bc4c0) -- Size = (4) -- vaddr (0x6bc4c0) -- paddr (0xbc4c0) 

-- ReadReq [cc0:cff] IF Hit -- Blk --state: 7 (E) valid: 1 writable: 1 readable: 1 dirty: 0 | tag: 0x3 set: 0x3 way: 0 Latency: 2 

-- WriteReq [c5d00:c5d03] Hit -- Blk --state: f (M) valid: 1 writable: 1 readable: 1 dirty: 1 | tag: 0x317 set: 0x4 way: 0 Latency: 2 

-- WriteReq [bc484:bc487] Hit -- Blk --state: f (M) valid: 1 writable: 1 readable: 1 dirty: 1 | tag: 0x2f1 set: 0x2 way: 0 Latency: 2 

-- ReadReq [d00:d3f] IF Hit -- Blk --state: 7 (E) valid: 1 writable: 1 readable: 1 dirty: 0 | tag: 0x3 set: 0x4 way: 0 Latency: 2 

-- Tick (139842000) -- ISN: (85992) : S -> (0x21) at (0x7fffffffed00) -- Size = (4) -- vaddr (0x7fffffffed00) -- paddr (0xc5d00) 

-- WriteReq [c5d00:c5d03] Hit -- Blk --state: f (M) valid: 1 writable: 1 readable: 1 dirty: 1 | tag: 0x317 set: 0x4 way: 0 Latency: 2 

-- Tick (139842500) -- ISN: (85993) : L from (0x7fffffffed00) -- of Size = (4) -- vaddr (0x7fffffffed00) -- paddr (0xc5d00) 

-- Tick (139843000) -- ISN: (85999) : L from (0x7fffffffed00) -- of Size = (4) -- vaddr (0x7fffffffed00) -- paddr (0xc5d00) 

-- WriteReq [bc488:bc48b] Hit -- Blk --state: f (M) valid: 1 writable: 1 readable: 1 dirty: 1 | tag: 0x2f1 set: 0x2 way: 0 Latency: 2 

-- ReadReq [cc0:cff] IF Hit -- Blk --state: 7 (E) valid: 1 writable: 1 readable: 1 dirty: 0 | tag: 0x3 set: 0x3 way: 0 Latency: 2 

-- Tick (139844000) -- ISN: (86006) : L from (0x7fffffffed00) -- of Size = (4) -- vaddr (0x7fffffffed00) -- paddr (0xc5d00) 

-- WriteReq [c5d00:c5d03] Hit -- Blk --state: f (M) valid: 1 writable: 1 readable: 1 dirty: 1 | tag: 0x317 set: 0x4 way: 0 Latency: 2 

-- ReadReq [d00:d3f] IF Hit -- Blk --state: 7 (E) valid: 1 writable: 1 readable: 1 dirty: 0 | tag: 0x3 set: 0x4 way: 0 Latency: 2 

-- Tick (139845000) -- ISN: (86005) : S -> (0x0) at (0x6bc4c4) -- Size = (4) -- vaddr (0x6bc4c4) -- paddr (0xbc4c4) 

-- Tick (139845000) -- ISN: (86023) : L from (0x7fffffffed00) -- of Size = (4) -- vaddr (0x7fffffffed00) -- paddr (0xc5d00) 

-- WriteReq [bc48c:bc48f] Hit -- Blk --state: f (M) valid: 1 writable: 1 readable: 1 dirty: 1 | tag: 0x2f1 set: 0x2 way: 0 Latency: 2 

-- Tick (139845500) -- ISN: (86009) : S -> (0x22) at (0x7fffffffed00) -- Size = (4) -- vaddr (0x7fffffffed00) -- paddr (0xc5d00) 

-- ReadReq [cc0:cff] IF Hit -- Blk --state: 7 (E) valid: 1 writable: 1 readable: 1 dirty: 0 | tag: 0x3 set: 0x3 way: 0 Latency: 2 

-- Tick (139846000) -- ISN: (86010) : L from (0x7fffffffed00) -- of Size = (4) -- vaddr (0x7fffffffed00) -- paddr (0xc5d00) 

-- Tick (139846000) -- ISN: (86016) : L from (0x7fffffffed00) -- of Size = (4) -- vaddr (0x7fffffffed00) -- paddr (0xc5d00) 

-- WriteReq [c5d00:c5d03] Hit -- Blk --state: f (M) valid: 1 writable: 1 readable: 1 dirty: 1 | tag: 0x317 set: 0x4 way: 0 Latency: 2 

-- Sqsh -> ISN (86022)

-- ReadReq [d00:d3f] IF Hit -- Blk --state: 7 (E) valid: 1 writable: 1 readable: 1 dirty: 0 | tag: 0x3 set: 0x4 way: 0 Latency: 2 

-- WriteReq [bc490:bc493] Hit -- Blk --state: f (M) valid: 1 writable: 1 readable: 1 dirty: 1 | tag: 0x2f1 set: 0x2 way: 0 Latency: 2 

-- Tick (139848000) -- ISN: (86022) : S -> (0x0) at (0x6bc4c8) -- Size = (4) -- vaddr (0x6bc4c8) -- paddr (0xbc4c8) 

-- WriteReq [c5d00:c5d03] Hit -- Blk --state: f (M) valid: 1 writable: 1 readable: 1 dirty: 1 | tag: 0x317 set: 0x4 way: 0 Latency: 2 

-- ReadReq [cc0:cff] IF Hit -- Blk --state: 7 (E) valid: 1 writable: 1 readable: 1 dirty: 0 | tag: 0x3 set: 0x3 way: 0 Latency: 2 

-- WriteReq [bc494:bc497] Hit -- Blk --state: f (M) valid: 1 writable: 1 readable: 1 dirty: 1 | tag: 0x2f1 set: 0x2 way: 0 Latency: 2 

-- ReadReq [d00:d3f] IF Hit -- Blk --state: 7 (E) valid: 1 writable: 1 readable: 1 dirty: 0 | tag: 0x3 set: 0x4 way: 0 Latency: 2 

-- WriteReq [c5d00:c5d03] Hit -- Blk --state: f (M) valid: 1 writable: 1 readable: 1 dirty: 1 | tag: 0x317 set: 0x4 way: 0 Latency: 2 

-- Tick (139850500) -- ISN: (86067) : L from (0x7fffffffed00) -- of Size = (4) -- vaddr (0x7fffffffed00) -- paddr (0xc5d00) 

-- ReadReq [cc0:cff] IF Hit -- Blk --state: 7 (E) valid: 1 writable: 1 readable: 1 dirty: 0 | tag: 0x3 set: 0x3 way: 0 Latency: 2 

-- WriteReq [bc498:bc49b] Hit -- Blk --state: f (M) valid: 1 writable: 1 readable: 1 dirty: 1 | tag: 0x2f1 set: 0x2 way: 0 Latency: 2 

-- ReadReq [d00:d3f] IF Hit -- Blk --state: 7 (E) valid: 1 writable: 1 readable: 1 dirty: 0 | tag: 0x3 set: 0x4 way: 0 Latency: 2 

-- Tick (139852000) -- ISN: (86070) : S -> (0x23) at (0x7fffffffed00) -- Size = (4) -- vaddr (0x7fffffffed00) -- paddr (0xc5d00) 

-- WriteReq [c5d00:c5d03] Hit -- Blk --state: f (M) valid: 1 writable: 1 readable: 1 dirty: 1 | tag: 0x317 set: 0x4 way: 0 Latency: 2 

-- Tick (139852500) -- ISN: (86071) : L from (0x7fffffffed00) -- of Size = (4) -- vaddr (0x7fffffffed00) -- paddr (0xc5d00) 

-- Tick (139852500) -- ISN: (86077) : L from (0x7fffffffed00) -- of Size = (4) -- vaddr (0x7fffffffed00) -- paddr (0xc5d00) 

-- Tick (139853000) -- ISN: (86084) : L from (0x7fffffffed00) -- of Size = (4) -- vaddr (0x7fffffffed00) -- paddr (0xc5d00) 

-- WriteReq [bc49c:bc49f] Hit -- Blk --state: f (M) valid: 1 writable: 1 readable: 1 dirty: 1 | tag: 0x2f1 set: 0x2 way: 0 Latency: 2 

-- ReadReq [cc0:cff] IF Hit -- Blk --state: 7 (E) valid: 1 writable: 1 readable: 1 dirty: 0 | tag: 0x3 set: 0x3 way: 0 Latency: 2 

-- WriteReq [c5d00:c5d03] Hit -- Blk --state: f (M) valid: 1 writable: 1 readable: 1 dirty: 1 | tag: 0x317 set: 0x4 way: 0 Latency: 2 

-- ReadReq [d00:d3f] IF Hit -- Blk --state: 7 (E) valid: 1 writable: 1 readable: 1 dirty: 0 | tag: 0x3 set: 0x4 way: 0 Latency: 2 

-- Tick (139854500) -- ISN: (86083) : S -> (0x0) at (0x6bc4cc) -- Size = (4) -- vaddr (0x6bc4cc) -- paddr (0xbc4cc) 

-- Tick (139854500) -- ISN: (86087) : S -> (0x24) at (0x7fffffffed00) -- Size = (4) -- vaddr (0x7fffffffed00) -- paddr (0xc5d00) 

-- Tick (139855000) -- ISN: (86088) : L from (0x7fffffffed00) -- of Size = (4) -- vaddr (0x7fffffffed00) -- paddr (0xc5d00) 

-- Tick (139855000) -- ISN: (86094) : L from (0x7fffffffed00) -- of Size = (4) -- vaddr (0x7fffffffed00) -- paddr (0xc5d00) 

-- WriteReq [bc4a0:bc4a3] Hit -- Blk --state: f (M) valid: 1 writable: 1 readable: 1 dirty: 1 | tag: 0x2f1 set: 0x2 way: 0 Latency: 2 

-- Tick (139855500) -- ISN: (86101) : L from (0x7fffffffed00) -- of Size = (4) -- vaddr (0x7fffffffed00) -- paddr (0xc5d00) 

-- ReadReq [cc0:cff] IF Hit -- Blk --state: 7 (E) valid: 1 writable: 1 readable: 1 dirty: 0 | tag: 0x3 set: 0x3 way: 0 Latency: 2 

-- WriteReq [c5d00:c5d03] Hit -- Blk --state: f (M) valid: 1 writable: 1 readable: 1 dirty: 1 | tag: 0x317 set: 0x4 way: 0 Latency: 2 

-- ReadReq [d00:d3f] IF Hit -- Blk --state: 7 (E) valid: 1 writable: 1 readable: 1 dirty: 0 | tag: 0x3 set: 0x4 way: 0 Latency: 2 

-- Tick (139857000) -- ISN: (86100) : S -> (0x0) at (0x6bc4d0) -- Size = (4) -- vaddr (0x6bc4d0) -- paddr (0xbc4d0) 

-- Tick (139857000) -- ISN: (86104) : S -> (0x25) at (0x7fffffffed00) -- Size = (4) -- vaddr (0x7fffffffed00) -- paddr (0xc5d00) 

-- WriteReq [bc4a4:bc4a7] Hit -- Blk --state: f (M) valid: 1 writable: 1 readable: 1 dirty: 1 | tag: 0x2f1 set: 0x2 way: 0 Latency: 2 

-- Tick (139857500) -- ISN: (86105) : L from (0x7fffffffed00) -- of Size = (4) -- vaddr (0x7fffffffed00) -- paddr (0xc5d00) 

-- Tick (139857500) -- ISN: (86111) : L from (0x7fffffffed00) -- of Size = (4) -- vaddr (0x7fffffffed00) -- paddr (0xc5d00) 

-- Tick (139858000) -- ISN: (86118) : L from (0x7fffffffed00) -- of Size = (4) -- vaddr (0x7fffffffed00) -- paddr (0xc5d00) 

-- WriteReq [c5d00:c5d03] Hit -- Blk --state: f (M) valid: 1 writable: 1 readable: 1 dirty: 1 | tag: 0x317 set: 0x4 way: 0 Latency: 2 

-- ReadReq [cc0:cff] IF Hit -- Blk --state: 7 (E) valid: 1 writable: 1 readable: 1 dirty: 0 | tag: 0x3 set: 0x3 way: 0 Latency: 2 

-- WriteReq [bc4a8:bc4ab] Hit -- Blk --state: f (M) valid: 1 writable: 1 readable: 1 dirty: 1 | tag: 0x2f1 set: 0x2 way: 0 Latency: 2 

-- ReadReq [d00:d3f] IF Hit -- Blk --state: 7 (E) valid: 1 writable: 1 readable: 1 dirty: 0 | tag: 0x3 set: 0x4 way: 0 Latency: 2 

-- Tick (139859500) -- ISN: (86117) : S -> (0x0) at (0x6bc4d4) -- Size = (4) -- vaddr (0x6bc4d4) -- paddr (0xbc4d4) 

-- Tick (139859500) -- ISN: (86121) : S -> (0x26) at (0x7fffffffed00) -- Size = (4) -- vaddr (0x7fffffffed00) -- paddr (0xc5d00) 

-- Tick (139860000) -- ISN: (86122) : L from (0x7fffffffed00) -- of Size = (4) -- vaddr (0x7fffffffed00) -- paddr (0xc5d00) 

-- Tick (139860000) -- ISN: (86128) : L from (0x7fffffffed00) -- of Size = (4) -- vaddr (0x7fffffffed00) -- paddr (0xc5d00) 

-- WriteReq [c5d00:c5d03] Hit -- Blk --state: f (M) valid: 1 writable: 1 readable: 1 dirty: 1 | tag: 0x317 set: 0x4 way: 0 Latency: 2 

-- Tick (139860500) -- ISN: (86135) : L from (0x7fffffffed00) -- of Size = (4) -- vaddr (0x7fffffffed00) -- paddr (0xc5d00) 

-- ReadReq [cc0:cff] IF Hit -- Blk --state: 7 (E) valid: 1 writable: 1 readable: 1 dirty: 0 | tag: 0x3 set: 0x3 way: 0 Latency: 2 

-- WriteReq [bc4ac:bc4af] Hit -- Blk --state: f (M) valid: 1 writable: 1 readable: 1 dirty: 1 | tag: 0x2f1 set: 0x2 way: 0 Latency: 2 

-- ReadReq [d00:d3f] IF Hit -- Blk --state: 7 (E) valid: 1 writable: 1 readable: 1 dirty: 0 | tag: 0x3 set: 0x4 way: 0 Latency: 2 

-- Tick (139862000) -- ISN: (86134) : S -> (0x0) at (0x6bc4d8) -- Size = (4) -- vaddr (0x6bc4d8) -- paddr (0xbc4d8) 

-- Tick (139862000) -- ISN: (86138) : S -> (0x27) at (0x7fffffffed00) -- Size = (4) -- vaddr (0x7fffffffed00) -- paddr (0xc5d00) 

-- WriteReq [c5d00:c5d03] Hit -- Blk --state: f (M) valid: 1 writable: 1 readable: 1 dirty: 1 | tag: 0x317 set: 0x4 way: 0 Latency: 2 

-- Tick (139862500) -- ISN: (86139) : L from (0x7fffffffed00) -- of Size = (4) -- vaddr (0x7fffffffed00) -- paddr (0xc5d00) 

-- Tick (139862500) -- ISN: (86145) : L from (0x7fffffffed00) -- of Size = (4) -- vaddr (0x7fffffffed00) -- paddr (0xc5d00) 

-- Tick (139863000) -- ISN: (86152) : L from (0x7fffffffed00) -- of Size = (4) -- vaddr (0x7fffffffed00) -- paddr (0xc5d00) 

-- WriteReq [bc4b0:bc4b3] Hit -- Blk --state: f (M) valid: 1 writable: 1 readable: 1 dirty: 1 | tag: 0x2f1 set: 0x2 way: 0 Latency: 2 

-- ReadReq [cc0:cff] IF Hit -- Blk --state: 7 (E) valid: 1 writable: 1 readable: 1 dirty: 0 | tag: 0x3 set: 0x3 way: 0 Latency: 2 

-- WriteReq [c5d00:c5d03] Hit -- Blk --state: f (M) valid: 1 writable: 1 readable: 1 dirty: 1 | tag: 0x317 set: 0x4 way: 0 Latency: 2 

-- ReadReq [d00:d3f] IF Hit -- Blk --state: 7 (E) valid: 1 writable: 1 readable: 1 dirty: 0 | tag: 0x3 set: 0x4 way: 0 Latency: 2 

-- Tick (139864500) -- ISN: (86151) : S -> (0x0) at (0x6bc4dc) -- Size = (4) -- vaddr (0x6bc4dc) -- paddr (0xbc4dc) 

-- Tick (139864500) -- ISN: (86155) : S -> (0x28) at (0x7fffffffed00) -- Size = (4) -- vaddr (0x7fffffffed00) -- paddr (0xc5d00) 

-- Tick (139865000) -- ISN: (86156) : L from (0x7fffffffed00) -- of Size = (4) -- vaddr (0x7fffffffed00) -- paddr (0xc5d00) 

-- Tick (139865000) -- ISN: (86162) : L from (0x7fffffffed00) -- of Size = (4) -- vaddr (0x7fffffffed00) -- paddr (0xc5d00) 

-- WriteReq [bc4b4:bc4b7] Hit -- Blk --state: f (M) valid: 1 writable: 1 readable: 1 dirty: 1 | tag: 0x2f1 set: 0x2 way: 0 Latency: 2 

-- Tick (139865500) -- ISN: (86169) : L from (0x7fffffffed00) -- of Size = (4) -- vaddr (0x7fffffffed00) -- paddr (0xc5d00) 

-- ReadReq [cc0:cff] IF Hit -- Blk --state: 7 (E) valid: 1 writable: 1 readable: 1 dirty: 0 | tag: 0x3 set: 0x3 way: 0 Latency: 2 

-- WriteReq [c5d00:c5d03] Hit -- Blk --state: f (M) valid: 1 writable: 1 readable: 1 dirty: 1 | tag: 0x317 set: 0x4 way: 0 Latency: 2 

-- ReadReq [d00:d3f] IF Hit -- Blk --state: 7 (E) valid: 1 writable: 1 readable: 1 dirty: 0 | tag: 0x3 set: 0x4 way: 0 Latency: 2 

-- Tick (139867000) -- ISN: (86168) : S -> (0x0) at (0x6bc4e0) -- Size = (4) -- vaddr (0x6bc4e0) -- paddr (0xbc4e0) 

-- Tick (139867000) -- ISN: (86172) : S -> (0x29) at (0x7fffffffed00) -- Size = (4) -- vaddr (0x7fffffffed00) -- paddr (0xc5d00) 

-- WriteReq [bc4b8:bc4bb] Hit -- Blk --state: f (M) valid: 1 writable: 1 readable: 1 dirty: 1 | tag: 0x2f1 set: 0x2 way: 0 Latency: 2 

-- Tick (139867500) -- ISN: (86173) : L from (0x7fffffffed00) -- of Size = (4) -- vaddr (0x7fffffffed00) -- paddr (0xc5d00) 

-- Tick (139867500) -- ISN: (86179) : L from (0x7fffffffed00) -- of Size = (4) -- vaddr (0x7fffffffed00) -- paddr (0xc5d00) 

-- Tick (139868000) -- ISN: (86186) : L from (0x7fffffffed00) -- of Size = (4) -- vaddr (0x7fffffffed00) -- paddr (0xc5d00) 

-- WriteReq [c5d00:c5d03] Hit -- Blk --state: f (M) valid: 1 writable: 1 readable: 1 dirty: 1 | tag: 0x317 set: 0x4 way: 0 Latency: 2 

-- ReadReq [cc0:cff] IF Hit -- Blk --state: 7 (E) valid: 1 writable: 1 readable: 1 dirty: 0 | tag: 0x3 set: 0x3 way: 0 Latency: 2 

-- WriteReq [bc4bc:bc4bf] Hit -- Blk --state: f (M) valid: 1 writable: 1 readable: 1 dirty: 1 | tag: 0x2f1 set: 0x2 way: 0 Latency: 2 

-- ReadReq [d00:d3f] IF Hit -- Blk --state: 7 (E) valid: 1 writable: 1 readable: 1 dirty: 0 | tag: 0x3 set: 0x4 way: 0 Latency: 2 

-- Tick (139869500) -- ISN: (86185) : S -> (0x0) at (0x6bc4e4) -- Size = (4) -- vaddr (0x6bc4e4) -- paddr (0xbc4e4) 

-- Tick (139869500) -- ISN: (86189) : S -> (0x2a) at (0x7fffffffed00) -- Size = (4) -- vaddr (0x7fffffffed00) -- paddr (0xc5d00) 

-- Tick (139870000) -- ISN: (86190) : L from (0x7fffffffed00) -- of Size = (4) -- vaddr (0x7fffffffed00) -- paddr (0xc5d00) 

-- Tick (139870000) -- ISN: (86196) : L from (0x7fffffffed00) -- of Size = (4) -- vaddr (0x7fffffffed00) -- paddr (0xc5d00) 

-- WriteReq [c5d00:c5d03] Hit -- Blk --state: f (M) valid: 1 writable: 1 readable: 1 dirty: 1 | tag: 0x317 set: 0x4 way: 0 Latency: 2 

-- Tick (139870500) -- ISN: (86203) : L from (0x7fffffffed00) -- of Size = (4) -- vaddr (0x7fffffffed00) -- paddr (0xc5d00) 

-- ReadReq [cc0:cff] IF Hit -- Blk --state: 7 (E) valid: 1 writable: 1 readable: 1 dirty: 0 | tag: 0x3 set: 0x3 way: 0 Latency: 2 

-- WriteReq [bc4c0:bc4c3] Miss --  Latency: 502 

-- ReadReq [d00:d3f] IF Hit -- Blk --state: 7 (E) valid: 1 writable: 1 readable: 1 dirty: 0 | tag: 0x3 set: 0x4 way: 0 Latency: 2 

-- Tick (139872000) -- ISN: (86202) : S -> (0x0) at (0x6bc4e8) -- Size = (4) -- vaddr (0x6bc4e8) -- paddr (0xbc4e8) 

-- Tick (139872000) -- ISN: (86206) : S -> (0x2b) at (0x7fffffffed00) -- Size = (4) -- vaddr (0x7fffffffed00) -- paddr (0xc5d00) 

-- Tick (139872500) -- ISN: (86207) : L from (0x7fffffffed00) -- of Size = (4) -- vaddr (0x7fffffffed00) -- paddr (0xc5d00) 

-- Tick (139872500) -- ISN: (86213) : L from (0x7fffffffed00) -- of Size = (4) -- vaddr (0x7fffffffed00) -- paddr (0xc5d00) 

-- Tick (139873000) -- ISN: (86220) : L from (0x7fffffffed00) -- of Size = (4) -- vaddr (0x7fffffffed00) -- paddr (0xc5d00) 

-- ReadReq [cc0:cff] IF Hit -- Blk --state: 7 (E) valid: 1 writable: 1 readable: 1 dirty: 0 | tag: 0x3 set: 0x3 way: 0 Latency: 2 

-- ReadReq [d00:d3f] IF Hit -- Blk --state: 7 (E) valid: 1 writable: 1 readable: 1 dirty: 0 | tag: 0x3 set: 0x4 way: 0 Latency: 2 

-- Tick (139874500) -- ISN: (86219) : S -> (0x0) at (0x6bc4ec) -- Size = (4) -- vaddr (0x6bc4ec) -- paddr (0xbc4ec) 

-- Tick (139874500) -- ISN: (86223) : S -> (0x2c) at (0x7fffffffed00) -- Size = (4) -- vaddr (0x7fffffffed00) -- paddr (0xc5d00) 

-- Tick (139875000) -- ISN: (86224) : L from (0x7fffffffed00) -- of Size = (4) -- vaddr (0x7fffffffed00) -- paddr (0xc5d00) 

-- Tick (139875000) -- ISN: (86230) : L from (0x7fffffffed00) -- of Size = (4) -- vaddr (0x7fffffffed00) -- paddr (0xc5d00) 

-- Tick (139875500) -- ISN: (86237) : L from (0x7fffffffed00) -- of Size = (4) -- vaddr (0x7fffffffed00) -- paddr (0xc5d00) 

-- ReadReq [cc0:cff] IF Hit -- Blk --state: 7 (E) valid: 1 writable: 1 readable: 1 dirty: 0 | tag: 0x3 set: 0x3 way: 0 Latency: 2 

-- ReadReq [d00:d3f] IF Hit -- Blk --state: 7 (E) valid: 1 writable: 1 readable: 1 dirty: 0 | tag: 0x3 set: 0x4 way: 0 Latency: 2 

-- Tick (139877000) -- ISN: (86236) : S -> (0x0) at (0x6bc4f0) -- Size = (4) -- vaddr (0x6bc4f0) -- paddr (0xbc4f0) 

-- Tick (139877000) -- ISN: (86240) : S -> (0x2d) at (0x7fffffffed00) -- Size = (4) -- vaddr (0x7fffffffed00) -- paddr (0xc5d00) 

-- Tick (139877500) -- ISN: (86241) : L from (0x7fffffffed00) -- of Size = (4) -- vaddr (0x7fffffffed00) -- paddr (0xc5d00) 

-- Tick (139877500) -- ISN: (86247) : L from (0x7fffffffed00) -- of Size = (4) -- vaddr (0x7fffffffed00) -- paddr (0xc5d00) 

-- Tick (139878000) -- ISN: (86254) : L from (0x7fffffffed00) -- of Size = (4) -- vaddr (0x7fffffffed00) -- paddr (0xc5d00) 

-- ReadReq [cc0:cff] IF Hit -- Blk --state: 7 (E) valid: 1 writable: 1 readable: 1 dirty: 0 | tag: 0x3 set: 0x3 way: 0 Latency: 2 

-- ReadReq [d00:d3f] IF Hit -- Blk --state: 7 (E) valid: 1 writable: 1 readable: 1 dirty: 0 | tag: 0x3 set: 0x4 way: 0 Latency: 2 

-- Tick (139879500) -- ISN: (86253) : S -> (0x0) at (0x6bc4f4) -- Size = (4) -- vaddr (0x6bc4f4) -- paddr (0xbc4f4) 

-- Tick (139879500) -- ISN: (86257) : S -> (0x2e) at (0x7fffffffed00) -- Size = (4) -- vaddr (0x7fffffffed00) -- paddr (0xc5d00) 

-- Tick (139880000) -- ISN: (86258) : L from (0x7fffffffed00) -- of Size = (4) -- vaddr (0x7fffffffed00) -- paddr (0xc5d00) 

-- Tick (139880000) -- ISN: (86264) : L from (0x7fffffffed00) -- of Size = (4) -- vaddr (0x7fffffffed00) -- paddr (0xc5d00) 

-- Tick (139880500) -- ISN: (86271) : L from (0x7fffffffed00) -- of Size = (4) -- vaddr (0x7fffffffed00) -- paddr (0xc5d00) 

-- ReadReq [cc0:cff] IF Hit -- Blk --state: 7 (E) valid: 1 writable: 1 readable: 1 dirty: 0 | tag: 0x3 set: 0x3 way: 0 Latency: 2 

-- ReadReq [d00:d3f] IF Hit -- Blk --state: 7 (E) valid: 1 writable: 1 readable: 1 dirty: 0 | tag: 0x3 set: 0x4 way: 0 Latency: 2 

-- Tick (139882000) -- ISN: (86270) : S -> (0x0) at (0x6bc4f8) -- Size = (4) -- vaddr (0x6bc4f8) -- paddr (0xbc4f8) 

-- Tick (139882000) -- ISN: (86274) : S -> (0x2f) at (0x7fffffffed00) -- Size = (4) -- vaddr (0x7fffffffed00) -- paddr (0xc5d00) 

-- Tick (139882500) -- ISN: (86275) : L from (0x7fffffffed00) -- of Size = (4) -- vaddr (0x7fffffffed00) -- paddr (0xc5d00) 

-- Tick (139882500) -- ISN: (86281) : L from (0x7fffffffed00) -- of Size = (4) -- vaddr (0x7fffffffed00) -- paddr (0xc5d00) 

-- Tick (139883000) -- ISN: (86288) : L from (0x7fffffffed00) -- of Size = (4) -- vaddr (0x7fffffffed00) -- paddr (0xc5d00) 

-- ReadReq [cc0:cff] IF Hit -- Blk --state: 7 (E) valid: 1 writable: 1 readable: 1 dirty: 0 | tag: 0x3 set: 0x3 way: 0 Latency: 2 

-- ReadReq [d00:d3f] IF Hit -- Blk --state: 7 (E) valid: 1 writable: 1 readable: 1 dirty: 0 | tag: 0x3 set: 0x4 way: 0 Latency: 2 

-- Tick (139884500) -- ISN: (86287) : S -> (0x0) at (0x6bc4fc) -- Size = (4) -- vaddr (0x6bc4fc) -- paddr (0xbc4fc) 

-- Tick (139884500) -- ISN: (86291) : S -> (0x30) at (0x7fffffffed00) -- Size = (4) -- vaddr (0x7fffffffed00) -- paddr (0xc5d00) 

-- Tick (139885000) -- ISN: (86292) : L from (0x7fffffffed00) -- of Size = (4) -- vaddr (0x7fffffffed00) -- paddr (0xc5d00) 

-- Tick (139885000) -- ISN: (86298) : L from (0x7fffffffed00) -- of Size = (4) -- vaddr (0x7fffffffed00) -- paddr (0xc5d00) 

-- Tick (139885500) -- ISN: (86305) : L from (0x7fffffffed00) -- of Size = (4) -- vaddr (0x7fffffffed00) -- paddr (0xc5d00) 

-- ReadReq [cc0:cff] IF Hit -- Blk --state: 7 (E) valid: 1 writable: 1 readable: 1 dirty: 0 | tag: 0x3 set: 0x3 way: 0 Latency: 2 

-- ReadReq [d00:d3f] IF Hit -- Blk --state: 7 (E) valid: 1 writable: 1 readable: 1 dirty: 0 | tag: 0x3 set: 0x4 way: 0 Latency: 2 

-- Tick (139887000) -- ISN: (86304) : S -> (0x0) at (0x6bc500) -- Size = (4) -- vaddr (0x6bc500) -- paddr (0xbc500) 

-- ReadReq [cc0:cff] IF Hit -- Blk --state: 7 (E) valid: 1 writable: 1 readable: 1 dirty: 0 | tag: 0x3 set: 0x3 way: 0 Latency: 2 

-- WriteReq [c5d00:c5d03] Hit -- Blk --state: f (M) valid: 1 writable: 1 readable: 1 dirty: 1 | tag: 0x317 set: 0x4 way: 0 Latency: 2 

-- WriteReq [bc4c4:bc4c7] Hit -- Blk --state: f (M) valid: 1 writable: 1 readable: 1 dirty: 1 | tag: 0x2f1 set: 0x3 way: 0 Latency: 2 

-- ReadReq [d00:d3f] IF Hit -- Blk --state: 7 (E) valid: 1 writable: 1 readable: 1 dirty: 0 | tag: 0x3 set: 0x4 way: 0 Latency: 2 

-- Tick (139924000) -- ISN: (86308) : S -> (0x31) at (0x7fffffffed00) -- Size = (4) -- vaddr (0x7fffffffed00) -- paddr (0xc5d00) 

-- WriteReq [c5d00:c5d03] Hit -- Blk --state: f (M) valid: 1 writable: 1 readable: 1 dirty: 1 | tag: 0x317 set: 0x4 way: 0 Latency: 2 

-- Tick (139924500) -- ISN: (86309) : L from (0x7fffffffed00) -- of Size = (4) -- vaddr (0x7fffffffed00) -- paddr (0xc5d00) 

-- Tick (139925000) -- ISN: (86315) : L from (0x7fffffffed00) -- of Size = (4) -- vaddr (0x7fffffffed00) -- paddr (0xc5d00) 

-- WriteReq [bc4c8:bc4cb] Hit -- Blk --state: f (M) valid: 1 writable: 1 readable: 1 dirty: 1 | tag: 0x2f1 set: 0x3 way: 0 Latency: 2 

-- ReadReq [cc0:cff] IF Hit -- Blk --state: 7 (E) valid: 1 writable: 1 readable: 1 dirty: 0 | tag: 0x3 set: 0x3 way: 0 Latency: 2 

-- Tick (139926000) -- ISN: (86322) : L from (0x7fffffffed00) -- of Size = (4) -- vaddr (0x7fffffffed00) -- paddr (0xc5d00) 

-- WriteReq [c5d00:c5d03] Hit -- Blk --state: f (M) valid: 1 writable: 1 readable: 1 dirty: 1 | tag: 0x317 set: 0x4 way: 0 Latency: 2 

-- ReadReq [d00:d3f] IF Hit -- Blk --state: 7 (E) valid: 1 writable: 1 readable: 1 dirty: 0 | tag: 0x3 set: 0x4 way: 0 Latency: 2 

-- Tick (139927000) -- ISN: (86321) : S -> (0x0) at (0x6bc504) -- Size = (4) -- vaddr (0x6bc504) -- paddr (0xbc504) 

-- WriteReq [bc4cc:bc4cf] Hit -- Blk --state: f (M) valid: 1 writable: 1 readable: 1 dirty: 1 | tag: 0x2f1 set: 0x3 way: 0 Latency: 2 

-- Tick (139927500) -- ISN: (86325) : S -> (0x32) at (0x7fffffffed00) -- Size = (4) -- vaddr (0x7fffffffed00) -- paddr (0xc5d00) 

-- ReadReq [cc0:cff] IF Hit -- Blk --state: 7 (E) valid: 1 writable: 1 readable: 1 dirty: 0 | tag: 0x3 set: 0x3 way: 0 Latency: 2 

-- Tick (139928000) -- ISN: (86326) : L from (0x7fffffffed00) -- of Size = (4) -- vaddr (0x7fffffffed00) -- paddr (0xc5d00) 

-- Tick (139928000) -- ISN: (86332) : L from (0x7fffffffed00) -- of Size = (4) -- vaddr (0x7fffffffed00) -- paddr (0xc5d00) 

-- Tick (139928000) -- ISN: (86339) : L from (0x7fffffffed00) -- of Size = (4) -- vaddr (0x7fffffffed00) -- paddr (0xc5d00) 

-- WriteReq [c5d00:c5d03] Hit -- Blk --state: f (M) valid: 1 writable: 1 readable: 1 dirty: 1 | tag: 0x317 set: 0x4 way: 0 Latency: 2 

-- ReadReq [d00:d3f] IF Hit -- Blk --state: 7 (E) valid: 1 writable: 1 readable: 1 dirty: 0 | tag: 0x3 set: 0x4 way: 0 Latency: 2 

-- WriteReq [bc4d0:bc4d3] Hit -- Blk --state: f (M) valid: 1 writable: 1 readable: 1 dirty: 1 | tag: 0x2f1 set: 0x3 way: 0 Latency: 2 

-- Tick (139929500) -- ISN: (86342) : S -> (0x33) at (0x7fffffffed00) -- Size = (4) -- vaddr (0x7fffffffed00) -- paddr (0xc5d00) 

-- Tick (139930000) -- ISN: (86338) : S -> (0x0) at (0x6bc508) -- Size = (4) -- vaddr (0x6bc508) -- paddr (0xbc508) 

-- Tick (139930000) -- ISN: (86343) : L from (0x7fffffffed00) -- of Size = (4) -- vaddr (0x7fffffffed00) -- paddr (0xc5d00) 

-- Tick (139930000) -- ISN: (86349) : L from (0x7fffffffed00) -- of Size = (4) -- vaddr (0x7fffffffed00) -- paddr (0xc5d00) 

-- Tick (139930000) -- ISN: (86356) : L from (0x7fffffffed00) -- of Size = (4) -- vaddr (0x7fffffffed00) -- paddr (0xc5d00) 

-- WriteReq [c5d00:c5d03] Hit -- Blk --state: f (M) valid: 1 writable: 1 readable: 1 dirty: 1 | tag: 0x317 set: 0x4 way: 0 Latency: 2 

-- ReadReq [cc0:cff] IF Hit -- Blk --state: 7 (E) valid: 1 writable: 1 readable: 1 dirty: 0 | tag: 0x3 set: 0x3 way: 0 Latency: 2 

-- WriteReq [bc4d4:bc4d7] Hit -- Blk --state: f (M) valid: 1 writable: 1 readable: 1 dirty: 1 | tag: 0x2f1 set: 0x3 way: 0 Latency: 2 

-- ReadReq [d00:d3f] IF Hit -- Blk --state: 7 (E) valid: 1 writable: 1 readable: 1 dirty: 0 | tag: 0x3 set: 0x4 way: 0 Latency: 2 

-- Tick (139931500) -- ISN: (86359) : S -> (0x34) at (0x7fffffffed00) -- Size = (4) -- vaddr (0x7fffffffed00) -- paddr (0xc5d00) 

-- Tick (139932000) -- ISN: (86355) : S -> (0x0) at (0x6bc50c) -- Size = (4) -- vaddr (0x6bc50c) -- paddr (0xbc50c) 

-- Tick (139932000) -- ISN: (86360) : L from (0x7fffffffed00) -- of Size = (4) -- vaddr (0x7fffffffed00) -- paddr (0xc5d00) 

-- Tick (139932000) -- ISN: (86366) : L from (0x7fffffffed00) -- of Size = (4) -- vaddr (0x7fffffffed00) -- paddr (0xc5d00) 

-- Tick (139932000) -- ISN: (86373) : L from (0x7fffffffed00) -- of Size = (4) -- vaddr (0x7fffffffed00) -- paddr (0xc5d00) 

-- WriteReq [c5d00:c5d03] Hit -- Blk --state: f (M) valid: 1 writable: 1 readable: 1 dirty: 1 | tag: 0x317 set: 0x4 way: 0 Latency: 2 

-- ReadReq [cc0:cff] IF Hit -- Blk --state: 7 (E) valid: 1 writable: 1 readable: 1 dirty: 0 | tag: 0x3 set: 0x3 way: 0 Latency: 2 

-- WriteReq [bc4d8:bc4db] Hit -- Blk --state: f (M) valid: 1 writable: 1 readable: 1 dirty: 1 | tag: 0x2f1 set: 0x3 way: 0 Latency: 2 

-- Tick (139933500) -- ISN: (86376) : S -> (0x35) at (0x7fffffffed00) -- Size = (4) -- vaddr (0x7fffffffed00) -- paddr (0xc5d00) 

-- ReadReq [d00:d3f] IF Hit -- Blk --state: 7 (E) valid: 1 writable: 1 readable: 1 dirty: 0 | tag: 0x3 set: 0x4 way: 0 Latency: 2 

-- Tick (139934000) -- ISN: (86372) : S -> (0x0) at (0x6bc510) -- Size = (4) -- vaddr (0x6bc510) -- paddr (0xbc510) 

-- Tick (139934000) -- ISN: (86377) : L from (0x7fffffffed00) -- of Size = (4) -- vaddr (0x7fffffffed00) -- paddr (0xc5d00) 

-- Tick (139934000) -- ISN: (86383) : L from (0x7fffffffed00) -- of Size = (4) -- vaddr (0x7fffffffed00) -- paddr (0xc5d00) 

-- Tick (139934000) -- ISN: (86390) : L from (0x7fffffffed00) -- of Size = (4) -- vaddr (0x7fffffffed00) -- paddr (0xc5d00) 

-- WriteReq [c5d00:c5d03] Hit -- Blk --state: f (M) valid: 1 writable: 1 readable: 1 dirty: 1 | tag: 0x317 set: 0x4 way: 0 Latency: 2 

-- WriteReq [bc4dc:bc4df] Hit -- Blk --state: f (M) valid: 1 writable: 1 readable: 1 dirty: 1 | tag: 0x2f1 set: 0x3 way: 0 Latency: 2 

-- ReadReq [cc0:cff] IF Hit -- Blk --state: 7 (E) valid: 1 writable: 1 readable: 1 dirty: 0 | tag: 0x3 set: 0x3 way: 0 Latency: 2 

-- Tick (139935500) -- ISN: (86393) : S -> (0x36) at (0x7fffffffed00) -- Size = (4) -- vaddr (0x7fffffffed00) -- paddr (0xc5d00) 

-- Tick (139936000) -- ISN: (86389) : S -> (0x0) at (0x6bc514) -- Size = (4) -- vaddr (0x6bc514) -- paddr (0xbc514) 

-- Tick (139936000) -- ISN: (86394) : L from (0x7fffffffed00) -- of Size = (4) -- vaddr (0x7fffffffed00) -- paddr (0xc5d00) 

-- Tick (139936000) -- ISN: (86400) : L from (0x7fffffffed00) -- of Size = (4) -- vaddr (0x7fffffffed00) -- paddr (0xc5d00) 

-- Tick (139936000) -- ISN: (86407) : L from (0x7fffffffed00) -- of Size = (4) -- vaddr (0x7fffffffed00) -- paddr (0xc5d00) 

-- WriteReq [c5d00:c5d03] Hit -- Blk --state: f (M) valid: 1 writable: 1 readable: 1 dirty: 1 | tag: 0x317 set: 0x4 way: 0 Latency: 2 

-- ReadReq [d00:d3f] IF Hit -- Blk --state: 7 (E) valid: 1 writable: 1 readable: 1 dirty: 0 | tag: 0x3 set: 0x4 way: 0 Latency: 2 

-- WriteReq [bc4e0:bc4e3] Hit -- Blk --state: f (M) valid: 1 writable: 1 readable: 1 dirty: 1 | tag: 0x2f1 set: 0x3 way: 0 Latency: 2 

-- Tick (139937500) -- ISN: (86410) : S -> (0x37) at (0x7fffffffed00) -- Size = (4) -- vaddr (0x7fffffffed00) -- paddr (0xc5d00) 

-- ReadReq [cc0:cff] IF Hit -- Blk --state: 7 (E) valid: 1 writable: 1 readable: 1 dirty: 0 | tag: 0x3 set: 0x3 way: 0 Latency: 2 

-- Tick (139938000) -- ISN: (86406) : S -> (0x0) at (0x6bc518) -- Size = (4) -- vaddr (0x6bc518) -- paddr (0xbc518) 

-- Tick (139938000) -- ISN: (86411) : L from (0x7fffffffed00) -- of Size = (4) -- vaddr (0x7fffffffed00) -- paddr (0xc5d00) 

-- Tick (139938000) -- ISN: (86417) : L from (0x7fffffffed00) -- of Size = (4) -- vaddr (0x7fffffffed00) -- paddr (0xc5d00) 

-- WriteReq [c5d00:c5d03] Hit -- Blk --state: f (M) valid: 1 writable: 1 readable: 1 dirty: 1 | tag: 0x317 set: 0x4 way: 0 Latency: 2 

-- Tick (139938500) -- ISN: (86424) : L from (0x7fffffffed00) -- of Size = (4) -- vaddr (0x7fffffffed00) -- paddr (0xc5d00) 

-- ReadReq [d00:d3f] IF Hit -- Blk --state: 7 (E) valid: 1 writable: 1 readable: 1 dirty: 0 | tag: 0x3 set: 0x4 way: 0 Latency: 2 

-- WriteReq [bc4e4:bc4e7] Hit -- Blk --state: f (M) valid: 1 writable: 1 readable: 1 dirty: 1 | tag: 0x2f1 set: 0x3 way: 0 Latency: 2 

-- Tick (139940000) -- ISN: (86423) : S -> (0x0) at (0x6bc51c) -- Size = (4) -- vaddr (0x6bc51c) -- paddr (0xbc51c) 

-- Tick (139940000) -- ISN: (86427) : S -> (0x38) at (0x7fffffffed00) -- Size = (4) -- vaddr (0x7fffffffed00) -- paddr (0xc5d00) 

-- WriteReq [c5d00:c5d03] Hit -- Blk --state: f (M) valid: 1 writable: 1 readable: 1 dirty: 1 | tag: 0x317 set: 0x4 way: 0 Latency: 2 

-- ReadReq [cc0:cff] IF Hit -- Blk --state: 7 (E) valid: 1 writable: 1 readable: 1 dirty: 0 | tag: 0x3 set: 0x3 way: 0 Latency: 2 

-- Tick (139940500) -- ISN: (86428) : L from (0x7fffffffed00) -- of Size = (4) -- vaddr (0x7fffffffed00) -- paddr (0xc5d00) 

-- Tick (139940500) -- ISN: (86434) : L from (0x7fffffffed00) -- of Size = (4) -- vaddr (0x7fffffffed00) -- paddr (0xc5d00) 

-- Tick (139940500) -- ISN: (86441) : L from (0x7fffffffed00) -- of Size = (4) -- vaddr (0x7fffffffed00) -- paddr (0xc5d00) 

-- WriteReq [bc4e8:bc4eb] Hit -- Blk --state: f (M) valid: 1 writable: 1 readable: 1 dirty: 1 | tag: 0x2f1 set: 0x3 way: 0 Latency: 2 

-- ReadReq [d00:d3f] IF Hit -- Blk --state: 7 (E) valid: 1 writable: 1 readable: 1 dirty: 0 | tag: 0x3 set: 0x4 way: 0 Latency: 2 

-- Tick (139942000) -- ISN: (86444) : S -> (0x39) at (0x7fffffffed00) -- Size = (4) -- vaddr (0x7fffffffed00) -- paddr (0xc5d00) 

-- WriteReq [c5d00:c5d03] Hit -- Blk --state: f (M) valid: 1 writable: 1 readable: 1 dirty: 1 | tag: 0x317 set: 0x4 way: 0 Latency: 2 

-- Tick (139942500) -- ISN: (86440) : S -> (0x0) at (0x6bc520) -- Size = (4) -- vaddr (0x6bc520) -- paddr (0xbc520) 

-- Tick (139942500) -- ISN: (86445) : L from (0x7fffffffed00) -- of Size = (4) -- vaddr (0x7fffffffed00) -- paddr (0xc5d00) 

-- Tick (139942500) -- ISN: (86451) : L from (0x7fffffffed00) -- of Size = (4) -- vaddr (0x7fffffffed00) -- paddr (0xc5d00) 

-- Tick (139942500) -- ISN: (86458) : L from (0x7fffffffed00) -- of Size = (4) -- vaddr (0x7fffffffed00) -- paddr (0xc5d00) 

-- ReadReq [cc0:cff] IF Hit -- Blk --state: 7 (E) valid: 1 writable: 1 readable: 1 dirty: 0 | tag: 0x3 set: 0x3 way: 0 Latency: 2 

-- WriteReq [bc4ec:bc4ef] Hit -- Blk --state: f (M) valid: 1 writable: 1 readable: 1 dirty: 1 | tag: 0x2f1 set: 0x3 way: 0 Latency: 2 

-- ReadReq [d00:d3f] IF Hit -- Blk --state: 7 (E) valid: 1 writable: 1 readable: 1 dirty: 0 | tag: 0x3 set: 0x4 way: 0 Latency: 2 

-- Tick (139944000) -- ISN: (86461) : S -> (0x3a) at (0x7fffffffed00) -- Size = (4) -- vaddr (0x7fffffffed00) -- paddr (0xc5d00) 

-- WriteReq [c5d00:c5d03] Hit -- Blk --state: f (M) valid: 1 writable: 1 readable: 1 dirty: 1 | tag: 0x317 set: 0x4 way: 0 Latency: 2 

-- Tick (139944500) -- ISN: (86457) : S -> (0x0) at (0x6bc524) -- Size = (4) -- vaddr (0x6bc524) -- paddr (0xbc524) 

-- Tick (139944500) -- ISN: (86462) : L from (0x7fffffffed00) -- of Size = (4) -- vaddr (0x7fffffffed00) -- paddr (0xc5d00) 

-- Tick (139944500) -- ISN: (86468) : L from (0x7fffffffed00) -- of Size = (4) -- vaddr (0x7fffffffed00) -- paddr (0xc5d00) 

-- Tick (139945000) -- ISN: (86475) : L from (0x7fffffffed00) -- of Size = (4) -- vaddr (0x7fffffffed00) -- paddr (0xc5d00) 

-- WriteReq [bc4f0:bc4f3] Hit -- Blk --state: f (M) valid: 1 writable: 1 readable: 1 dirty: 1 | tag: 0x2f1 set: 0x3 way: 0 Latency: 2 

-- ReadReq [cc0:cff] IF Hit -- Blk --state: 7 (E) valid: 1 writable: 1 readable: 1 dirty: 0 | tag: 0x3 set: 0x3 way: 0 Latency: 2 

-- WriteReq [c5d00:c5d03] Hit -- Blk --state: f (M) valid: 1 writable: 1 readable: 1 dirty: 1 | tag: 0x317 set: 0x4 way: 0 Latency: 2 

-- ReadReq [d00:d3f] IF Hit -- Blk --state: 7 (E) valid: 1 writable: 1 readable: 1 dirty: 0 | tag: 0x3 set: 0x4 way: 0 Latency: 2 

-- Tick (139946500) -- ISN: (86474) : S -> (0x0) at (0x6bc528) -- Size = (4) -- vaddr (0x6bc528) -- paddr (0xbc528) 

-- Tick (139946500) -- ISN: (86478) : S -> (0x3b) at (0x7fffffffed00) -- Size = (4) -- vaddr (0x7fffffffed00) -- paddr (0xc5d00) 

-- Tick (139947000) -- ISN: (86479) : L from (0x7fffffffed00) -- of Size = (4) -- vaddr (0x7fffffffed00) -- paddr (0xc5d00) 

-- Tick (139947000) -- ISN: (86485) : L from (0x7fffffffed00) -- of Size = (4) -- vaddr (0x7fffffffed00) -- paddr (0xc5d00) 

-- WriteReq [bc4f4:bc4f7] Hit -- Blk --state: f (M) valid: 1 writable: 1 readable: 1 dirty: 1 | tag: 0x2f1 set: 0x3 way: 0 Latency: 2 

-- Tick (139947500) -- ISN: (86492) : L from (0x7fffffffed00) -- of Size = (4) -- vaddr (0x7fffffffed00) -- paddr (0xc5d00) 

-- ReadReq [cc0:cff] IF Hit -- Blk --state: 7 (E) valid: 1 writable: 1 readable: 1 dirty: 0 | tag: 0x3 set: 0x3 way: 0 Latency: 2 

-- WriteReq [c5d00:c5d03] Hit -- Blk --state: f (M) valid: 1 writable: 1 readable: 1 dirty: 1 | tag: 0x317 set: 0x4 way: 0 Latency: 2 

-- ReadReq [d00:d3f] IF Hit -- Blk --state: 7 (E) valid: 1 writable: 1 readable: 1 dirty: 0 | tag: 0x3 set: 0x4 way: 0 Latency: 2 

-- Tick (139949000) -- ISN: (86491) : S -> (0x0) at (0x6bc52c) -- Size = (4) -- vaddr (0x6bc52c) -- paddr (0xbc52c) 

-- Tick (139949000) -- ISN: (86495) : S -> (0x3c) at (0x7fffffffed00) -- Size = (4) -- vaddr (0x7fffffffed00) -- paddr (0xc5d00) 

-- WriteReq [bc4f8:bc4fb] Hit -- Blk --state: f (M) valid: 1 writable: 1 readable: 1 dirty: 1 | tag: 0x2f1 set: 0x3 way: 0 Latency: 2 

-- Tick (139949500) -- ISN: (86496) : L from (0x7fffffffed00) -- of Size = (4) -- vaddr (0x7fffffffed00) -- paddr (0xc5d00) 

-- Tick (139949500) -- ISN: (86502) : L from (0x7fffffffed00) -- of Size = (4) -- vaddr (0x7fffffffed00) -- paddr (0xc5d00) 

-- Tick (139950000) -- ISN: (86509) : L from (0x7fffffffed00) -- of Size = (4) -- vaddr (0x7fffffffed00) -- paddr (0xc5d00) 

-- WriteReq [c5d00:c5d03] Hit -- Blk --state: f (M) valid: 1 writable: 1 readable: 1 dirty: 1 | tag: 0x317 set: 0x4 way: 0 Latency: 2 

-- ReadReq [cc0:cff] IF Hit -- Blk --state: 7 (E) valid: 1 writable: 1 readable: 1 dirty: 0 | tag: 0x3 set: 0x3 way: 0 Latency: 2 

-- WriteReq [bc4fc:bc4ff] Hit -- Blk --state: f (M) valid: 1 writable: 1 readable: 1 dirty: 1 | tag: 0x2f1 set: 0x3 way: 0 Latency: 2 

-- ReadReq [d00:d3f] IF Hit -- Blk --state: 7 (E) valid: 1 writable: 1 readable: 1 dirty: 0 | tag: 0x3 set: 0x4 way: 0 Latency: 2 

-- Tick (139951500) -- ISN: (86508) : S -> (0x0) at (0x6bc530) -- Size = (4) -- vaddr (0x6bc530) -- paddr (0xbc530) 

-- Tick (139951500) -- ISN: (86512) : S -> (0x3d) at (0x7fffffffed00) -- Size = (4) -- vaddr (0x7fffffffed00) -- paddr (0xc5d00) 

-- Tick (139952000) -- ISN: (86513) : L from (0x7fffffffed00) -- of Size = (4) -- vaddr (0x7fffffffed00) -- paddr (0xc5d00) 

-- Tick (139952000) -- ISN: (86519) : L from (0x7fffffffed00) -- of Size = (4) -- vaddr (0x7fffffffed00) -- paddr (0xc5d00) 

-- WriteReq [c5d00:c5d03] Hit -- Blk --state: f (M) valid: 1 writable: 1 readable: 1 dirty: 1 | tag: 0x317 set: 0x4 way: 0 Latency: 2 

-- Tick (139952500) -- ISN: (86526) : L from (0x7fffffffed00) -- of Size = (4) -- vaddr (0x7fffffffed00) -- paddr (0xc5d00) 

-- ReadReq [cc0:cff] IF Hit -- Blk --state: 7 (E) valid: 1 writable: 1 readable: 1 dirty: 0 | tag: 0x3 set: 0x3 way: 0 Latency: 2 

-- WriteReq [bc500:bc503] Miss --  Latency: 502 

-- ReadReq [d00:d3f] IF Hit -- Blk --state: 7 (E) valid: 1 writable: 1 readable: 1 dirty: 0 | tag: 0x3 set: 0x4 way: 0 Latency: 2 

-- Tick (139954000) -- ISN: (86525) : S -> (0x0) at (0x6bc534) -- Size = (4) -- vaddr (0x6bc534) -- paddr (0xbc534) 

-- Tick (139954000) -- ISN: (86529) : S -> (0x3e) at (0x7fffffffed00) -- Size = (4) -- vaddr (0x7fffffffed00) -- paddr (0xc5d00) 

-- Tick (139954500) -- ISN: (86530) : L from (0x7fffffffed00) -- of Size = (4) -- vaddr (0x7fffffffed00) -- paddr (0xc5d00) 

-- Tick (139954500) -- ISN: (86536) : L from (0x7fffffffed00) -- of Size = (4) -- vaddr (0x7fffffffed00) -- paddr (0xc5d00) 

-- Tick (139955000) -- ISN: (86543) : L from (0x7fffffffed00) -- of Size = (4) -- vaddr (0x7fffffffed00) -- paddr (0xc5d00) 

-- ReadReq [cc0:cff] IF Hit -- Blk --state: 7 (E) valid: 1 writable: 1 readable: 1 dirty: 0 | tag: 0x3 set: 0x3 way: 0 Latency: 2 

-- ReadReq [d00:d3f] IF Hit -- Blk --state: 7 (E) valid: 1 writable: 1 readable: 1 dirty: 0 | tag: 0x3 set: 0x4 way: 0 Latency: 2 

-- Tick (139956500) -- ISN: (86542) : S -> (0x0) at (0x6bc538) -- Size = (4) -- vaddr (0x6bc538) -- paddr (0xbc538) 

[...]

-- ReadReq [bc920:bc923] Miss --  Latency: 502 

-- Tick (162618500) -- ISN: (131899) : L from (0x6bc960) -- of Size = (4) -- vaddr (0x6bc960) -- paddr (0xbc960) 

-- Tick (162618500) -- ISN: (131905) : S -> (0xf0) at (0x7fffffffecec) -- Size = (4) -- vaddr (0x7fffffffecec) -- paddr (0xc5cec) 

-- Tick (162619000) -- ISN: (131907) : L from (0x7fffffffecec) -- of Size = (4) -- vaddr (0x7fffffffecec) -- paddr (0xc5cec) 

-- Tick (162619000) -- ISN: (131912) : L from (0x7fffffffecec) -- of Size = (4) -- vaddr (0x7fffffffecec) -- paddr (0xc5cec) 

-- ReadReq [bc0:bff] IF Hit -- Blk --state: 7 (E) valid: 1 writable: 1 readable: 1 dirty: 0 | tag: 0x2 set: 0xf way: 0 Latency: 2 

-- Tick (162619500) -- ISN: (131921) : L from (0x7fffffffecec) -- of Size = (4) -- vaddr (0x7fffffffecec) -- paddr (0xc5cec) 

-- ReadReq [b80:bbf] IF Hit -- Blk --state: 7 (E) valid: 1 writable: 1 readable: 1 dirty: 0 | tag: 0x2 set: 0xe way: 0 Latency: 2 

-- Tick (162621000) -- ISN: (131917) : L from (0x6bc9a0) -- of Size = (4) -- vaddr (0x6bc9a0) -- paddr (0xbc9a0) 

-- Tick (162621000) -- ISN: (131923) : S -> (0x0) at (0x7fffffffecec) -- Size = (4) -- vaddr (0x7fffffffecec) -- paddr (0xc5cec) 

-- Tick (162621500) -- ISN: (131925) : L from (0x7fffffffecec) -- of Size = (4) -- vaddr (0x7fffffffecec) -- paddr (0xc5cec) 

-- Tick (162621500) -- ISN: (131930) : L from (0x7fffffffecec) -- of Size = (4) -- vaddr (0x7fffffffecec) -- paddr (0xc5cec) 

-- ReadReq [bc0:bff] IF Hit -- Blk --state: 7 (E) valid: 1 writable: 1 readable: 1 dirty: 0 | tag: 0x2 set: 0xf way: 0 Latency: 2 

-- Tick (162622000) -- ISN: (131939) : L from (0x7fffffffecec) -- of Size = (4) -- vaddr (0x7fffffffecec) -- paddr (0xc5cec) 

-- ReadReq [b80:bbf] IF Hit -- Blk --state: 7 (E) valid: 1 writable: 1 readable: 1 dirty: 0 | tag: 0x2 set: 0xe way: 0 Latency: 2 

-- Tick (162623500) -- ISN: (131935) : L from (0x6bc9e0) -- of Size = (4) -- vaddr (0x6bc9e0) -- paddr (0xbc9e0) 

-- Tick (162623500) -- ISN: (131941) : S -> (0x10) at (0x7fffffffecec) -- Size = (4) -- vaddr (0x7fffffffecec) -- paddr (0xc5cec) 

-- Sqsh -> ISN (131929)

-- ReadReq [bc0:bff] IF Hit -- Blk --state: 7 (E) valid: 1 writable: 1 readable: 1 dirty: 0 | tag: 0x2 set: 0xf way: 0 Latency: 2 

-- ReadReq [d40:d7f] IF Hit -- Blk --state: 7 (E) valid: 1 writable: 1 readable: 1 dirty: 0 | tag: 0x3 set: 0x5 way: 0 Latency: 2 

-- Tick (162626000) -- ISN: (131899) : L from (0x6bc960) -- of Size = (4) -- vaddr (0x6bc960) -- paddr (0xbc960) 

-- ReadReq [bc960:bc963] Hit -- Blk --state: 7 (E) valid: 1 writable: 1 readable: 1 dirty: 0 | tag: 0x2f2 set: 0x5 way: 0 Latency: 2 

-- Tick (162626000) -- ISN: (131917) : L from (0x6bc9a0) -- of Size = (4) -- vaddr (0x6bc9a0) -- paddr (0xbc9a0) 

-- ReadReq [bc9a0:bc9a3] Hit -- Blk --state: 7 (E) valid: 1 writable: 1 readable: 1 dirty: 0 | tag: 0x2f2 set: 0x6 way: 0 Latency: 2 

-- Tick (162627000) -- ISN: (131811) : S -> (0x0) at (0x6bc424) -- Size = (4) -- vaddr (0x6bc424) -- paddr (0xbc424) 

-- ReadReq [d80:dbf] IF Hit -- Blk --state: 7 (E) valid: 1 writable: 1 readable: 1 dirty: 0 | tag: 0x3 set: 0x6 way: 0 Latency: 2 

-- Tick (162627500) -- ISN: (131901) : S -> (0x0) at (0x6bc424) -- Size = (4) -- vaddr (0x6bc424) -- paddr (0xbc424) 

-- Tick (162628000) -- ISN: (131919) : S -> (0x0) at (0x6bc424) -- Size = (4) -- vaddr (0x6bc424) -- paddr (0xbc424) 

-- Tick (162629000) -- ISN: (131967) : L from (0x7fffffffecf0) -- of Size = (8) -- vaddr (0x7fffffffecf0) -- paddr (0xc5cf0) 

-- ReadReq [c5cf0:c5cf7] Hit -- Blk --state: f (M) valid: 1 writable: 1 readable: 1 dirty: 1 | tag: 0x317 set: 0x3 way: 0 Latency: 2 

-- WriteReq [bc424:bc427] Miss --  Latency: 502 

-- Tick (162629500) -- ISN: (131970) : L from (0x7fffffffecf8) -- of Size = (8) -- vaddr (0x7fffffffecf8) -- paddr (0xc5cf8) 

-- Tick (162630500) -- ISN: (131974) : L from (0x6bc7e0) -- of Size = (4) -- vaddr (0x6bc7e0) -- paddr (0xbc7e0) 

-- Tick (162630500) -- ISN: (131978) : L from (0x6bc820) -- of Size = (4) -- vaddr (0x6bc820) -- paddr (0xbc820) 

-- Tick (162631000) -- ISN: (131982) : L from (0x6bc5e4) -- of Size = (4) -- vaddr (0x6bc5e4) -- paddr (0xbc5e4) 

-- Tick (162631000) -- ISN: (131988) : S -> (0x79) at (0x7fffffffecf8) -- Size = (8) -- vaddr (0x7fffffffecf8) -- paddr (0xc5cf8) 

-- Tick (162631500) -- ISN: (131995) : S -> (0x88) at (0x7fffffffecf0) -- Size = (8) -- vaddr (0x7fffffffecf0) -- paddr (0xc5cf0) 

-- Sqsh -> ISN (131990)

-- ReadReq [b40:b7f] IF Hit -- Blk --state: 7 (E) valid: 1 writable: 1 readable: 1 dirty: 0 | tag: 0x2 set: 0xd way: 0 Latency: 2 

-- ReadReq [b80:bbf] IF Hit -- Blk --state: 7 (E) valid: 1 writable: 1 readable: 1 dirty: 0 | tag: 0x2 set: 0xe way: 0 Latency: 2 

-- ReadReq [d40:d7f] IF Hit -- Blk --state: 7 (E) valid: 1 writable: 1 readable: 1 dirty: 0 | tag: 0x3 set: 0x5 way: 0 Latency: 2 

-- Tick (162636500) -- ISN: (132046) : S -> (0x10) at (0x7fffffffecf0) -- Size = (8) -- vaddr (0x7fffffffecf0) -- paddr (0xc5cf0) 

-- ReadReq [d80:dbf] IF Hit -- Blk --state: 7 (E) valid: 1 writable: 1 readable: 1 dirty: 0 | tag: 0x3 set: 0x6 way: 0 Latency: 2 

-- Tick (162637000) -- ISN: (132051) : L from (0x6b90f0) -- of Size = (4) -- vaddr (0x6b90f0) -- paddr (0xb90f0) 

-- Tick (162637500) -- ISN: (132049) : S -> (0x69) at (0x7fffffffecec) -- Size = (4) -- vaddr (0x7fffffffecec) -- paddr (0xc5cec) 

-- Tick (162638000) -- ISN: (132052) : L from (0x7fffffffecec) -- of Size = (4) -- vaddr (0x7fffffffecec) -- paddr (0xc5cec) 

-- Tick (162638000) -- ISN: (132057) : L from (0x7fffffffecec) -- of Size = (4) -- vaddr (0x7fffffffecec) -- paddr (0xc5cec) 

-- Tick (162638500) -- ISN: (132074) : L from (0x7fffffffecf0) -- of Size = (8) -- vaddr (0x7fffffffecf0) -- paddr (0xc5cf0) 

-- Tick (162639000) -- ISN: (131970) : L from (0x7fffffffecf8) -- of Size = (8) -- vaddr (0x7fffffffecf8) -- paddr (0xc5cf8) 

-- ReadReq [c5cf8:c5cff] Miss --  Latency: 502 

-- Tick (162639000) -- ISN: (131974) : L from (0x6bc7e0) -- of Size = (4) -- vaddr (0x6bc7e0) -- paddr (0xbc7e0) 

-- Tick (162639000) -- ISN: (131978) : L from (0x6bc820) -- of Size = (4) -- vaddr (0x6bc820) -- paddr (0xbc820) 

-- Tick (162639000) -- ISN: (131982) : L from (0x6bc5e4) -- of Size = (4) -- vaddr (0x6bc5e4) -- paddr (0xbc5e4) 

-- Tick (162639500) -- ISN: (132051) : L from (0x6b90f0) -- of Size = (4) -- vaddr (0x6b90f0) -- paddr (0xb90f0) 

-- Tick (162639500) -- ISN: (132077) : L from (0x7fffffffecf8) -- of Size = (8) -- vaddr (0x7fffffffecf8) -- paddr (0xc5cf8) 

-- Tick (162640000) -- ISN: (132062) : L from (0x6bc5e4) -- of Size = (4) -- vaddr (0x6bc5e4) -- paddr (0xbc5e4) 

-- Tick (162641000) -- ISN: (132084) : S -> (0x88) at (0x7fffffffecf8) -- Size = (8) -- vaddr (0x7fffffffecf8) -- paddr (0xc5cf8) 

-- Tick (162641000) -- ISN: (132094) : L from (0x7fffffffed08) -- of Size = (8) -- vaddr (0x7fffffffed08) -- paddr (0xc5d08) 

-- Tick (162641000) -- ISN: (132095) : L from (0x6c58a8) -- of Size = (8) -- vaddr (0x6c58a8) -- paddr (0xc78a8) 

-- Tick (162641500) -- ISN: (132090) : S -> (0x92) at (0x7fffffffecf0) -- Size = (8) -- vaddr (0x7fffffffecf0) -- paddr (0xc5cf0) 

-- Sqsh -> ISN (132086)

-- ReadReq [dc0:dff] IF Hit -- Blk --state: 7 (E) valid: 1 writable: 1 readable: 1 dirty: 0 | tag: 0x3 set: 0x7 way: 0 Latency: 2 

-- ReadReq [d80:dbf] IF Hit -- Blk --state: 7 (E) valid: 1 writable: 1 readable: 1 dirty: 0 | tag: 0x3 set: 0x6 way: 0 Latency: 2 

-- Tick (162652000) -- ISN: (131974) : L from (0x6bc7e0) -- of Size = (4) -- vaddr (0x6bc7e0) -- paddr (0xbc7e0) 

-- ReadReq [bc7e0:bc7e3] Hit -- Blk --state: 7 (E) valid: 1 writable: 1 readable: 1 dirty: 0 | tag: 0x2f1 set: 0xf way: 0 Latency: 2 

-- Tick (162652000) -- ISN: (131978) : L from (0x6bc820) -- of Size = (4) -- vaddr (0x6bc820) -- paddr (0xbc820) 

-- ReadReq [bc820:bc823] Miss --  Latency: 502 

-- Tick (162652000) -- ISN: (131982) : L from (0x6bc5e4) -- of Size = (4) -- vaddr (0x6bc5e4) -- paddr (0xbc5e4) 

-- Tick (162652000) -- ISN: (132051) : L from (0x6b90f0) -- of Size = (4) -- vaddr (0x6b90f0) -- paddr (0xb90f0) 

-- Tick (162652500) -- ISN: (132062) : L from (0x6bc5e4) -- of Size = (4) -- vaddr (0x6bc5e4) -- paddr (0xbc5e4) 

-- Tick (162653500) -- ISN: (131976) : S -> (0x0) at (0x6bc424) -- Size = (4) -- vaddr (0x6bc424) -- paddr (0xbc424) 

-- WriteReq [c5cec:c5cef] Miss --  Latency: 502 

-- Tick (162665000) -- ISN: (131982) : L from (0x6bc5e4) -- of Size = (4) -- vaddr (0x6bc5e4) -- paddr (0xbc5e4) 

-- ReadReq [bc5e4:bc5e7] Hit -- Blk --state: 7 (E) valid: 1 writable: 1 readable: 1 dirty: 0 | tag: 0x2f1 set: 0x7 way: 0 Latency: 2 

-- Tick (162665000) -- ISN: (132051) : L from (0x6b90f0) -- of Size = (4) -- vaddr (0x6b90f0) -- paddr (0xb90f0) 

-- ReadReq [b90f0:b90f3] Miss --  Latency: 502 

-- Tick (162665000) -- ISN: (132062) : L from (0x6bc5e4) -- of Size = (4) -- vaddr (0x6bc5e4) -- paddr (0xbc5e4) 

-- Tick (162665500) -- ISN: (131865) : S -> (0x0) at (0x6bc424) -- Size = (4) -- vaddr (0x6bc424) -- paddr (0xbc424) 

-- Tick (162666500) -- ISN: (131984) : S -> (0x1) at (0x6bc424) -- Size = (4) -- vaddr (0x6bc424) -- paddr (0xbc424) 

-- Tick (162668000) -- ISN: (132139) : L from (0x7fffffffecf8) -- of Size = (8) -- vaddr (0x7fffffffecf8) -- paddr (0xc5cf8) 

-- ReadReq [1380:13bf] IF Miss --  Latency: 502 

-- Tick (162669500) -- ISN: (132149) : L from (0x7fffffffed08) -- of Size = (8) -- vaddr (0x7fffffffed08) -- paddr (0xc5d08) 

-- ReadReq [c5d08:c5d0f] Hit -- Blk --state: f (M) valid: 1 writable: 1 readable: 1 dirty: 1 | tag: 0x317 set: 0x4 way: 0 Latency: 2 

-- Tick (162670000) -- ISN: (132062) : L from (0x6bc5e4) -- of Size = (4) -- vaddr (0x6bc5e4) -- paddr (0xbc5e4) 

-- ReadReq [bc5e4:bc5e7] Hit -- Blk --state: 7 (E) valid: 1 writable: 1 readable: 1 dirty: 0 | tag: 0x2f1 set: 0x7 way: 0 Latency: 2 

-- Tick (162670000) -- ISN: (132145) : S -> (0x92) at (0x7fffffffecf8) -- Size = (8) -- vaddr (0x7fffffffecf8) -- paddr (0xc5cf8) 

-- Tick (162670000) -- ISN: (132150) : L from (0x6c58a8) -- of Size = (8) -- vaddr (0x6c58a8) -- paddr (0xc78a8) 

-- ReadReq [c78a8:c78af] Hit -- Blk --state: 7 (E) valid: 1 writable: 1 readable: 1 dirty: 0 | tag: 0x31e set: 0x2 way: 0 Latency: 2 

-- Sqsh -> ISN (132147)

-- ReadReq [dc0:dff] IF Hit -- Blk --state: 7 (E) valid: 1 writable: 1 readable: 1 dirty: 0 | tag: 0x3 set: 0x7 way: 0 Latency: 2 

-- ReadReq [d80:dbf] IF Hit -- Blk --state: 7 (E) valid: 1 writable: 1 readable: 1 dirty: 0 | tag: 0x3 set: 0x6 way: 0 Latency: 2 

-- Tick (162672500) -- ISN: (132067) : L from (0x6bc3c2) -- of Size = (1) -- vaddr (0x6bc3c2) -- paddr (0xbc3c2) 

-- ReadReq [bc3c2:bc3c2] Miss --  Latency: 502 

-- WriteReq [bc424:bc427] Hit -- Blk --state: f (M) valid: 1 writable: 1 readable: 1 dirty: 1 | tag: 0x2f1 set: 0 way: 0 Latency: 2 

-- ReadReq [1380:13bf] IF Miss --  Latency: 502 

-- Tick (162675500) -- ISN: (131883) : S -> (0x0) at (0x6bc424) -- Size = (4) -- vaddr (0x6bc424) -- paddr (0xbc424) 

-- WriteReq [c5cec:c5cef] Hit -- Blk --state: f (M) valid: 1 writable: 1 readable: 1 dirty: 1 | tag: 0x317 set: 0x3 way: 0 Latency: 2 

-- WriteReq [bc424:bc427] Hit -- Blk --state: f (M) valid: 1 writable: 1 readable: 1 dirty: 1 | tag: 0x2f1 set: 0 way: 0 Latency: 2 

-- WriteReq [c5cec:c5cef] Hit -- Blk --state: f (M) valid: 1 writable: 1 readable: 1 dirty: 1 | tag: 0x317 set: 0x3 way: 0 Latency: 2 

-- WriteReq [bc424:bc427] Hit -- Blk --state: f (M) valid: 1 writable: 1 readable: 1 dirty: 1 | tag: 0x2f1 set: 0 way: 0 Latency: 2 

-- WriteReq [c5cec:c5cef] Hit -- Blk --state: f (M) valid: 1 writable: 1 readable: 1 dirty: 1 | tag: 0x317 set: 0x3 way: 0 Latency: 2 

-- Tick (162680000) -- ISN: (132201) : L from (0x7fffffffecf8) -- of Size = (8) -- vaddr (0x7fffffffecf8) -- paddr (0xc5cf8) 

-- Tick (162680000) -- ISN: (132205) : L from (0x7fffffffed08) -- of Size = (8) -- vaddr (0x7fffffffed08) -- paddr (0xc5d08) 

-- ReadReq [c5d08:c5d0f] Miss --  Latency: 502 

-- Tick (162680000) -- ISN: (132206) : L from (0x6c58a8) -- of Size = (8) -- vaddr (0x6c58a8) -- paddr (0xc78a8) 

-- Tick (162681000) -- ISN: (132213) : S -> (0xab) at (0x7fffffffecf8) -- Size = (8) -- vaddr (0x7fffffffecf8) -- paddr (0xc5cf8) 

-- Tick (162681500) -- ISN: (132217) : L from (0x7fffffffed10) -- of Size = (8) -- vaddr (0x7fffffffed10) -- paddr (0xc5d10) 

-- Sqsh -> ISN (132215)

-- ReadReq [4bc40:4bc7f] IF Miss --  Latency: 502 

-- WriteReq [bc424:bc427] Hit -- Blk --state: f (M) valid: 1 writable: 1 readable: 1 dirty: 1 | tag: 0x2f1 set: 0 way: 0 Latency: 2 

-- Tick (162702000) -- ISN: (132206) : L from (0x6c58a8) -- of Size = (8) -- vaddr (0x6c58a8) -- paddr (0xc78a8) 

-- ReadReq [c78a8:c78af] Hit -- Blk --state: 7 (E) valid: 1 writable: 1 readable: 1 dirty: 0 | tag: 0x31e set: 0x2 way: 0 Latency: 2 

-- WriteReq [c5cec:c5cef] Hit -- Blk --state: f (M) valid: 1 writable: 1 readable: 1 dirty: 1 | tag: 0x317 set: 0x3 way: 0 Latency: 2 

-- WriteReq [bc424:bc427] Hit -- Blk --state: f (M) valid: 1 writable: 1 readable: 1 dirty: 1 | tag: 0x2f1 set: 0 way: 0 Latency: 2 

-- WriteReq [c5cec:c5cef] Hit -- Blk --state: f (M) valid: 1 writable: 1 readable: 1 dirty: 1 | tag: 0x317 set: 0x3 way: 0 Latency: 2 

-- Sqsh -> ISN (132210)

-- ReadReq [d80:dbf] IF Hit -- Blk --state: 7 (E) valid: 1 writable: 1 readable: 1 dirty: 0 | tag: 0x3 set: 0x6 way: 0 Latency: 2 

-- WriteReq [bc424:bc427] Hit -- Blk --state: f (M) valid: 1 writable: 1 readable: 1 dirty: 1 | tag: 0x2f1 set: 0 way: 0 Latency: 2 

-- ReadReq [1380:13bf] IF Miss --  Latency: 502 

-- WriteReq [c5cec:c5cef] Hit -- Blk --state: f (M) valid: 1 writable: 1 readable: 1 dirty: 1 | tag: 0x317 set: 0x3 way: 0 Latency: 2 

-- Tick (162707500) -- ISN: (131980) : S -> (0x0) at (0x6bc424) -- Size = (4) -- vaddr (0x6bc424) -- paddr (0xbc424) 

-- WriteReq [bc424:bc427] Miss --  Latency: 502 

-- Tick (162710000) -- ISN: (132231) : L from (0x7fffffffed10) -- of Size = (8) -- vaddr (0x7fffffffed10) -- paddr (0xc5d10) 

-- ReadReq [c5d10:c5d17] Hit -- Blk --state: 7 (E) valid: 1 writable: 1 readable: 1 dirty: 0 | tag: 0x317 set: 0x4 way: 0 Latency: 2 

-- Tick (162711000) -- ISN: (132234) : L from (0x7fffffffed18) -- of Size = (8) -- vaddr (0x7fffffffed18) -- paddr (0xc5d18) 

-- ReadReq [c5d18:c5d1f] Hit -- Blk --state: 7 (E) valid: 1 writable: 1 readable: 1 dirty: 0 | tag: 0x317 set: 0x4 way: 0 Latency: 2 

-- Sqsh -> ISN (132056)

-- ReadReq [b80:bbf] IF Hit -- Blk --state: 7 (E) valid: 1 writable: 1 readable: 1 dirty: 0 | tag: 0x2 set: 0xe way: 0 Latency: 2 

-- ReadReq [d40:d7f] IF Hit -- Blk --state: 7 (E) valid: 1 writable: 1 readable: 1 dirty: 0 | tag: 0x3 set: 0x5 way: 0 Latency: 2 

-- ReadReq [d80:dbf] IF Hit -- Blk --state: 7 (E) valid: 1 writable: 1 readable: 1 dirty: 0 | tag: 0x3 set: 0x6 way: 0 Latency: 2 

-- Tick (162727000) -- ISN: (132238) : L from (0x7fffffffecf0) -- of Size = (8) -- vaddr (0x7fffffffecf0) -- paddr (0xc5cf0) 

-- Tick (162727500) -- ISN: (132241) : L from (0x7fffffffecf8) -- of Size = (8) -- vaddr (0x7fffffffecf8) -- paddr (0xc5cf8) 

-- Tick (162728500) -- ISN: (132248) : S -> (0x88) at (0x7fffffffecf8) -- Size = (8) -- vaddr (0x7fffffffecf8) -- paddr (0xc5cf8) 

-- Tick (162728500) -- ISN: (132258) : L from (0x7fffffffed08) -- of Size = (8) -- vaddr (0x7fffffffed08) -- paddr (0xc5d08) 

-- ReadReq [c5d08:c5d0f] Hit -- Blk --state: 7 (E) valid: 1 writable: 1 readable: 1 dirty: 0 | tag: 0x317 set: 0x4 way: 0 Latency: 2 

-- Tick (162729000) -- ISN: (132254) : S -> (0x92) at (0x7fffffffecf0) -- Size = (8) -- vaddr (0x7fffffffecf0) -- paddr (0xc5cf0) 

-- Tick (162729000) -- ISN: (132259) : L from (0x6c58a8) -- of Size = (8) -- vaddr (0x6c58a8) -- paddr (0xc78a8) 

-- ReadReq [c78a8:c78af] Hit -- Blk --state: 7 (E) valid: 1 writable: 1 readable: 1 dirty: 0 | tag: 0x31e set: 0x2 way: 0 Latency: 2 

-- Sqsh -> ISN (132250)

-- ReadReq [dc0:dff] IF Hit -- Blk --state: 7 (E) valid: 1 writable: 1 readable: 1 dirty: 0 | tag: 0x3 set: 0x7 way: 0 Latency: 2 

-- ReadReq [d80:dbf] IF Hit -- Blk --state: 7 (E) valid: 1 writable: 1 readable: 1 dirty: 0 | tag: 0x3 set: 0x6 way: 0 Latency: 2 

-- WriteReq [bc424:bc427] Hit -- Blk --state: f (M) valid: 1 writable: 1 readable: 1 dirty: 1 | tag: 0x2f1 set: 0 way: 0 Latency: 2 

-- WriteReq [bc424:bc427] Hit -- Blk --state: f (M) valid: 1 writable: 1 readable: 1 dirty: 1 | tag: 0x2f1 set: 0 way: 0 Latency: 2 

-- Tick (162734500) -- ISN: (132326) : L from (0x7fffffffecf8) -- of Size = (8) -- vaddr (0x7fffffffecf8) -- paddr (0xc5cf8) 

-- WriteReq [c5cf8:c5cff] Miss --  Latency: 502 

-- Tick (162735500) -- ISN: (132336) : L from (0x7fffffffed08) -- of Size = (8) -- vaddr (0x7fffffffed08) -- paddr (0xc5d08) 

-- ReadReq [c5d08:c5d0f] Hit -- Blk --state: 7 (E) valid: 1 writable: 1 readable: 1 dirty: 0 | tag: 0x317 set: 0x4 way: 0 Latency: 2 

-- ReadReq [1380:13bf] IF Hit -- Blk --state: 7 (E) valid: 1 writable: 1 readable: 1 dirty: 0 | tag: 0x4 set: 0xe way: 0 Latency: 508 

-- Tick (162736000) -- ISN: (132332) : S -> (0x92) at (0x7fffffffecf8) -- Size = (8) -- vaddr (0x7fffffffecf8) -- paddr (0xc5cf8) 

-- Tick (162736000) -- ISN: (132337) : L from (0x6c58a8) -- of Size = (8) -- vaddr (0x6c58a8) -- paddr (0xc78a8) 

-- ReadReq [c78a8:c78af] Hit -- Blk --state: 7 (E) valid: 1 writable: 1 readable: 1 dirty: 0 | tag: 0x31e set: 0x2 way: 0 Latency: 2 

-- Tick (162736500) -- ISN: (132344) : S -> (0xab) at (0x7fffffffecf0) -- Size = (8) -- vaddr (0x7fffffffecf0) -- paddr (0xc5cf0) 

-- Sqsh -> ISN (132334)

-- ReadReq [dc0:dff] IF Hit -- Blk --state: 7 (E) valid: 1 writable: 1 readable: 1 dirty: 0 | tag: 0x3 set: 0x7 way: 0 Latency: 2 

-- ReadReq [d80:dbf] IF Hit -- Blk --state: 7 (E) valid: 1 writable: 1 readable: 1 dirty: 0 | tag: 0x3 set: 0x6 way: 0 Latency: 2 

-- ReadReq [4bc40:4bc7f] IF Miss --  Latency: 502 

-- Tick (162742000) -- ISN: (132388) : L from (0x7fffffffecf8) -- of Size = (8) -- vaddr (0x7fffffffecf8) -- paddr (0xc5cf8) 

-- Tick (162743000) -- ISN: (132392) : L from (0x7fffffffed08) -- of Size = (8) -- vaddr (0x7fffffffed08) -- paddr (0xc5d08) 

-- ReadReq [c5d08:c5d0f] Hit -- Blk --state: 7 (E) valid: 1 writable: 1 readable: 1 dirty: 0 | tag: 0x317 set: 0x4 way: 0 Latency: 2 

-- Tick (162743000) -- ISN: (132393) : L from (0x6c58a8) -- of Size = (8) -- vaddr (0x6c58a8) -- paddr (0xc78a8) 

-- ReadReq [c78a8:c78af] Hit -- Blk --state: 7 (E) valid: 1 writable: 1 readable: 1 dirty: 0 | tag: 0x31e set: 0x2 way: 0 Latency: 2 

-- Tick (162744000) -- ISN: (132400) : S -> (0xab) at (0x7fffffffecf8) -- Size = (8) -- vaddr (0x7fffffffecf8) -- paddr (0xc5cf8) 

-- Sqsh -> ISN (132397)

-- ReadReq [d80:dbf] IF Hit -- Blk --state: 7 (E) valid: 1 writable: 1 readable: 1 dirty: 0 | tag: 0x3 set: 0x6 way: 0 Latency: 2 

-- ReadReq [1380:13bf] IF Hit -- Blk --state: 7 (E) valid: 1 writable: 1 readable: 1 dirty: 0 | tag: 0x4 set: 0xe way: 0 Latency: 2 

-- Tick (162751000) -- ISN: (132404) : L from (0x7fffffffed10) -- of Size = (8) -- vaddr (0x7fffffffed10) -- paddr (0xc5d10) 

-- ReadReq [c5d10:c5d17] Hit -- Blk --state: 7 (E) valid: 1 writable: 1 readable: 1 dirty: 0 | tag: 0x317 set: 0x4 way: 0 Latency: 2 

-- Tick (162752000) -- ISN: (132407) : L from (0x7fffffffed18) -- of Size = (8) -- vaddr (0x7fffffffed18) -- paddr (0xc5d18) 

-- ReadReq [c5d18:c5d1f] Hit -- Blk --state: 7 (E) valid: 1 writable: 1 readable: 1 dirty: 0 | tag: 0x317 set: 0x4 way: 0 Latency: 2 

-- WriteReq [c5cf0:c5cf7] Hit -- Blk --state: f (M) valid: 1 writable: 1 readable: 1 dirty: 1 | tag: 0x317 set: 0x3 way: 0 Latency: 2 

-- WriteReq [c5cec:c5cef] Hit -- Blk --state: f (M) valid: 1 writable: 1 readable: 1 dirty: 1 | tag: 0x317 set: 0x3 way: 0 Latency: 2 

-- WriteReq [c5cf8:c5cff] Hit -- Blk --state: f (M) valid: 1 writable: 1 readable: 1 dirty: 1 | tag: 0x317 set: 0x3 way: 0 Latency: 2 

-- WriteReq [c5cf8:c5cff] Hit -- Blk --state: f (M) valid: 1 writable: 1 readable: 1 dirty: 1 | tag: 0x317 set: 0x3 way: 0 Latency: 2 

HERE 2 : enable_memreq_tracing = 0
Exiting @ tick 168147500 because exiting with last active thread context
